geometry optimzed in LAMMPS
_audit_creation_date              2020-11-30 
_audit_creation_method            'lammps2cif' 
_symmetry_space_group_name_H-M    'P1' 
_symmetry_Int_Tables_number       1 
_symmetry_cell_setting            triclinic 
loop_ 
_symmetry_equiv_pos_as_xyz 
  x,y,z 
_cell_length_a                    35.05562321 
_cell_length_b                    35.043293301982146 
_cell_length_c                    35.030983658206246 
_cell_angle_alpha                 90.00362155434095 
_cell_angle_beta                  90.00406667579573 
_cell_angle_gamma                 89.9960808235914 
loop_ 
_atom_site_label 
_atom_site_type_symbol 
_atom_site_fract_x 
_atom_site_fract_y 
_atom_site_fract_z 
_atom_site_charge 
N1          N  0.00152843  0.25171271  0.30965392    -0.34600
N2          N  0.99978239  0.19294076  0.25095567    -0.55200
N3          N  0.00174548  0.25170829  0.19225148    -0.34600
N4          N  0.00026209  0.31043933  0.25087829    -0.55200
C5          C  0.99293275  0.22062722  0.33087752     0.29000
C6          C  0.99288207  0.28281401  0.33083357     0.29000
C7          C  0.99396848  0.22055396  0.17073015     0.29000
C8          C  0.99434932  0.28289803  0.17063544     0.29000
C9          C  0.00531646  0.17061723  0.28194573     0.37600
C10         C  0.00535390  0.17049227  0.22004990     0.37600
C11         C  0.00534322  0.33284281  0.28189370     0.37600
C12         C  0.00568077  0.33294811  0.21999500     0.37600
C13         C  0.97892779  0.23208867  0.36610859    -0.19900
C14         C  0.97888378  0.27136793  0.36607736    -0.19900
C15         C  0.98178575  0.23209501  0.13485458    -0.19900
C16         C  0.98206730  0.27139811  0.13478212    -0.19900
C17         C  0.01405903  0.13370232  0.27069774    -0.21000
C18         C  0.01408520  0.13362389  0.23148901    -0.21000
C19         C  0.01368248  0.36985563  0.27067322    -0.21000
C20         C  0.01388821  0.36992617  0.23147355    -0.21000
C21         C  0.99958734  0.18236017  0.32007697    -0.16300
C22         C  0.99939825  0.32109619  0.32000150    -0.16300
C23         C  0.00037952  0.32131090  0.18172204    -0.16300
C24         C  0.99984802  0.18213094  0.18180158    -0.16300
H25         H  0.96983012  0.21403194  0.38946859     0.16600
H26         H  0.96974345  0.28943678  0.38941594     0.16600
H27         H  0.97383967  0.21407358  0.11104985     0.16600
H28         H  0.97434892  0.28944116  0.11092325     0.16600
H29         H  0.01921658  0.10922532  0.28882614     0.14900
H30         H  0.01933861  0.10908149  0.21348280     0.14900
H31         H  0.01836855  0.39442037  0.28880994     0.14900
H32         H  0.01881566  0.39455877  0.21350022     0.14900
H33         H  0.01657996  0.25169281  0.28410144     0.28100
H34         H  0.01543975  0.25165244  0.21852500     0.28100
O35         O  0.99984001  0.11086986  0.06341405    -0.78100
O36         O  0.00041101  0.39325542  0.06408810    -0.79700
O37         O  0.43739030  0.00252972  0.10940553    -0.76700
O38         O  0.06267238  0.00199401  0.10957211    -0.75100
O39         O  0.10918276  0.50077554  0.06330628    -0.76900
O40         O  0.39020458  0.50178626  0.06280094    -0.77800
O41         O  0.00031408  0.43966313  0.11020713    -0.79200
O42         O  0.99937933  0.06459346  0.10966392    -0.79400
Eu43       Eu  0.00031489  0.50235544  0.07805731     2.39200
O44         O  0.03911352  0.46325631  0.03952350    -0.87000
O45         O  0.46113278  0.04019075  0.03905635    -0.90600
C46         C  0.99949021  0.09969033  0.09853131     1.04100
C47         C  0.00035964  0.40450413  0.09915959     1.03900
C48         C  0.40229006  0.00225474  0.09830244     1.03900
C49         C  0.09771830  0.00151219  0.09838283     1.01800
H50         H  0.44457719  0.44732236  0.05481417     0.31500
O51         O  0.46056765  0.46330111  0.03899479    -0.99300
H52         H  0.05489060  0.05662504  0.05507116     0.31500
O53         O  0.03892969  0.04064302  0.03920953    -1.01900
O54         O  0.99955836  0.39225297  0.43809360    -0.79200
O55         O  0.00141530  0.11093524  0.43782139    -0.78600
O56         O  0.39100788  0.43907464  0.50026253    -0.77100
O57         O  0.10934206  0.43863636  0.50071372    -0.80400
O58         O  0.11014817  0.06376342  0.50029957    -0.78300
O59         O  0.39109951  0.06483829  0.50144245    -0.76900
O60         O  0.43711409  0.50230537  0.39184496    -0.78500
O61         O  0.06288075  0.50344111  0.39149473    -0.80400
O62         O  0.39091989  0.50226455  0.43818628    -0.77100
O63         O  0.10917838  0.50307411  0.43774122    -0.79800
O64         O  0.43718751  0.39276012  0.50049641    -0.75500
O65         O  0.43733912  0.11109360  0.50067085    -0.75600
O66         O  0.06382050  0.10993606  0.49959518    -0.75200
O67         O  0.06296241  0.39252890  0.50137742    -0.78700
O68         O  0.99978748  0.43835422  0.39164899    -0.78100
O69         O  0.00011837  0.06480837  0.39143313    -0.76400
Eu70       Eu  0.00029041  0.42409767  0.50063652     2.39800
Eu71       Eu  0.00060082  0.07904761  0.50020221     2.39600
Eu72       Eu  0.42251409  0.50183319  0.50088601     2.38400
Eu73       Eu  0.07801713  0.50142072  0.50036885     2.39900
Eu74       Eu  0.00015005  0.50140240  0.42267767     2.39800
O75         O  0.03918703  0.04010201  0.46150267    -0.90900
O76         O  0.46129391  0.46326153  0.46190676    -0.89800
C77         C  0.99946107  0.40333032  0.40298706     1.04300
C78         C  0.00077013  0.09984838  0.40274747     1.03000
C79         C  0.40214759  0.40399281  0.50024475     1.02400
C80         C  0.09803856  0.40362609  0.50123919     1.04400
C81         C  0.09891976  0.09882744  0.49985141     1.03300
C82         C  0.40225983  0.09993906  0.50127749     1.02200
C83         C  0.40208295  0.50230798  0.40310421     1.02200
C84         C  0.09789479  0.50380289  0.40274838     1.04900
H85         H  0.44523845  0.05629509  0.44519961     0.32200
O86         O  0.46119846  0.04042259  0.46117417    -1.03000
H87         H  0.05510160  0.44659690  0.44550424     0.34300
O88         O  0.03919491  0.46255471  0.46144637    -1.05600
N89         N  0.25008178  0.99938866  0.19137859    -0.34600
N90         N  0.19123967  0.00179546  0.25037698    -0.55200
N91         N  0.25031327  0.99984104  0.30921300    -0.34600
N92         N  0.30915958  0.00391282  0.25026959    -0.55200
C93         C  0.21881551  0.00465903  0.16928740     0.29000
C94         C  0.28109966  0.00571225  0.16922784     0.29000
C95         C  0.21922920  0.00627589  0.33123537     0.29000
C96         C  0.28147131  0.00595930  0.33120493     0.29000
C97         C  0.16830477  0.99838375  0.21952347     0.37600
C98         C  0.16847580  0.99906637  0.28141785     0.37600
C99         C  0.33190343  0.00046947  0.21927139     0.37600
C100        C  0.33197142  0.99971340  0.28113870     0.37600
C101        C  0.23017782  0.01348434  0.13237782    -0.19900
C102        C  0.26939088  0.01414958  0.13234129    -0.19900
C103        C  0.23084016  0.01579182  0.36789704    -0.19900
C104        C  0.27004251  0.01552092  0.36789255    -0.19900
C105        C  0.13069484  0.99407611  0.23105699    -0.21000
C106        C  0.13080839  0.99447589  0.27019862    -0.21000
C107        C  0.36945342  0.99512333  0.23055460    -0.21000
C108        C  0.36947418  0.99452087  0.26968017    -0.21000
C109        C  0.18032048  0.00104665  0.18107465    -0.16300
C110        C  0.31968899  0.00294723  0.18088436    -0.16300
C111        C  0.31992520  0.00209218  0.31957279    -0.16300
C112        C  0.18067513  0.00274620  0.31970907    -0.16300
H113        H  0.21210062  0.01916602  0.10797982     0.16600
H114        H  0.28723147  0.02039438  0.10790917     0.16600
H115        H  0.21293662  0.02238326  0.39219070     0.16600
H116        H  0.28807118  0.02189910  0.39215417     0.16600
H117        H  0.10567463  0.99133398  0.21315842     0.14900
H118        H  0.10589772  0.99209936  0.28830006     0.14900
H119        H  0.39427657  0.99174713  0.21249358     0.14900
H120        H  0.39431725  0.99069653  0.28762633     0.14900
H121        H  0.25032576  0.98866366  0.21889997     0.28100
H122        H  0.25031306  0.98831362  0.28200015     0.28100
N123        N  0.25009740  0.19323607  0.49794264    -0.34600
N124        N  0.19108117  0.25170045  0.50122162    -0.55200
N125        N  0.25000193  0.31057618  0.49954089    -0.34600
N126        N  0.30891900  0.25204178  0.49952069    -0.55200
C127        C  0.21903630  0.17162659  0.50569970     0.29000
C128        C  0.28129224  0.17178755  0.50565315     0.29000
C129        C  0.21888496  0.33244922  0.50610719     0.29000
C130        C  0.28118532  0.33266069  0.50506515     0.29000
C131        C  0.16889373  0.22080392  0.49470942     0.37600
C132        C  0.16880165  0.28269594  0.49562183     0.37600
C133        C  0.33126355  0.22109491  0.49389096     0.37600
C134        C  0.33121952  0.28302092  0.49388213     0.37600
C135        C  0.23062129  0.13582634  0.51799317    -0.19900
C136        C  0.26987442  0.13593569  0.51798988    -0.19900
C137        C  0.23043712  0.36915043  0.51557053    -0.19900
C138        C  0.26970660  0.36929136  0.51487834    -0.19900
C139        C  0.13219611  0.23219809  0.48534438    -0.21000
C140        C  0.13212402  0.27140034  0.48595079    -0.21000
C141        C  0.36806308  0.23245452  0.48487854    -0.21000
C142        C  0.36803918  0.27166076  0.48486713    -0.21000
C143        C  0.18065609  0.18256206  0.49974496    -0.16300
C144        C  0.31966338  0.18290719  0.49975288    -0.16300
C145        C  0.31952862  0.32129493  0.49924057    -0.16300
C146        C  0.18048866  0.32094326  0.50105257    -0.16300
H147        H  0.21266580  0.11197582  0.52590419     0.16600
H148        H  0.28794228  0.11216594  0.52588752     0.16600
H149        H  0.21246478  0.39352847  0.52164180     0.16600
H150        H  0.28770488  0.39378534  0.52036745     0.16600
H151        H  0.10793425  0.21415916  0.47905254     0.14900
H152        H  0.10779927  0.28950580  0.48009294     0.14900
H153        H  0.39251698  0.21439604  0.47943950     0.14900
H154        H  0.39247376  0.28971895  0.47935000     0.14900
H155        H  0.24997561  0.21937553  0.48400649     0.28100
H156        H  0.24985462  0.28345646  0.48780812     0.28100
C157        C  0.34876542  0.35067020  0.49955756    -0.11300
C158        C  0.37312558  0.37503116  0.49991924    -0.12900
C159        C  0.34891598  0.15348278  0.50081205    -0.11300
C160        C  0.37322648  0.12901303  0.50137232    -0.12900
C161        C  0.12691970  0.37459512  0.50148195    -0.11300
C162        C  0.15125852  0.35025287  0.50141733    -0.12900
C163        C  0.12779689  0.12800965  0.49977556    -0.11300
C164        C  0.15170911  0.15285215  0.49976221    -0.12900
C165        C  0.37311417  0.50233329  0.37414566    -0.11300
C166        C  0.34903153  0.00172097  0.34906049    -0.12900
C167        C  0.15155548  0.00391703  0.34914875    -0.11300
C168        C  0.12678401  0.50466841  0.37391617    -0.12900
C169        C  0.15105699  0.00137860  0.15171995    -0.11300
C170        C  0.12668344  0.00148776  0.12738032    -0.12900
C171        C  0.34882950  0.00300872  0.15144085    -0.11300
C172        C  0.37333824  0.00268664  0.12726421    -0.12900
C173        C  0.00034388  0.12897810  0.37394032    -0.11300
C174        C  0.99975273  0.15340860  0.34967735    -0.12900
C175        C  0.99907623  0.37427000  0.37409532    -0.11300
C176        C  0.99897428  0.35005368  0.34960477    -0.12900
C177        C  0.00019132  0.37537868  0.12820222    -0.11300
C178        C  0.00010148  0.35064898  0.15229897    -0.12900
C179        C  0.99936464  0.12868966  0.12767982    -0.11300
C180        C  0.99944687  0.15293808  0.15225147    -0.12900
N181        N  0.99592361  0.25162509  0.80915871    -0.34600
N182        N  0.99980968  0.19250815  0.75024001    -0.55200
N183        N  0.00407172  0.25182054  0.69181285    -0.34600
N184        N  0.00012308  0.31098536  0.75069068    -0.55200
C185        C  0.00032726  0.22038615  0.83154476     0.29000
C186        C  0.00022003  0.28271512  0.83177921     0.29000
C187        C  0.99978548  0.22077746  0.66911373     0.29000
C188        C  0.00074728  0.28311374  0.66933890     0.29000
C189        C  0.99838656  0.16946065  0.78112673     0.37600
C190        C  0.00030016  0.16955903  0.71923476     0.37600
C191        C  0.99876839  0.33392424  0.78168007     0.37600
C192        C  0.00181453  0.33404325  0.71981596     0.37600
C193        C  0.00640969  0.23183998  0.86898163    -0.19900
C194        C  0.00634044  0.27101147  0.86913004    -0.19900
C195        C  0.99464517  0.23256580  0.63164470    -0.19900
C196        C  0.99527779  0.27174025  0.63177984    -0.19900
C197        C  0.99795835  0.13157392  0.76965248    -0.21000
C198        C  0.99921276  0.13163473  0.73052726    -0.21000
C199        C  0.99940861  0.37186484  0.77039084    -0.21000
C200        C  0.00142981  0.37194031  0.73128483    -0.21000
C201        C  0.99901514  0.18175158  0.81958227    -0.16300
C202        C  0.99892298  0.32142488  0.82008515    -0.16300
C203        C  0.00240817  0.32172233  0.68134838    -0.16300
C204        C  0.00031541  0.18204173  0.68082894    -0.16300
H205        H  0.01093699  0.21385663  0.89369088     0.16600
H206        H  0.01084435  0.28882757  0.89396746     0.16600
H207        H  0.99040360  0.21481021  0.60671873     0.16600
H208        H  0.99157807  0.28978552  0.60697784     0.16600
H209        H  0.99705879  0.10643383  0.78757852     0.14900
H210        H  0.99902774  0.10656064  0.71248459     0.14900
H211        H  0.99897325  0.39693614  0.78843652     0.14900
H212        H  0.00232260  0.39708911  0.71336814     0.14900
H213        H  0.98761031  0.25170682  0.78080018     0.28100
H214        H  0.01167246  0.25168123  0.72035430     0.28100
O215        O  0.00010245  0.11095814  0.56267206    -0.78100
O216        O  0.00191781  0.39263987  0.56333453    -0.79700
O217        O  0.43706227  0.00244231  0.60941798    -0.76700
O218        O  0.06305015  0.00046113  0.60916424    -0.75100
O219        O  0.10987864  0.50081839  0.56291655    -0.76900
O220        O  0.39107862  0.50207774  0.56356897    -0.77800
O221        O  0.00229018  0.43903347  0.60950299    -0.79200
O222        O  0.99967751  0.06467305  0.60890109    -0.79400
Eu223      Eu  0.00071444  0.50192719  0.57818491     2.39200
O224        O  0.03905421  0.46303984  0.53918262    -0.87000
O225        O  0.46144066  0.04073667  0.53882943    -0.90600
C226        C  0.99967858  0.09975667  0.59772905     1.04100
C227        C  0.00256136  0.40394342  0.59836209     1.03900
C228        C  0.40196473  0.00228157  0.59826391     1.03900
C229        C  0.09810832  0.99954699  0.59805936     1.01800
H230        H  0.44548673  0.44699179  0.55561592     0.31500
O231        O  0.46136686  0.46296439  0.53968127    -0.99300
H232        H  0.05549994  0.05623339  0.55511567     0.31500
O233        O  0.03952711  0.04038733  0.53912530    -1.01900
O234        O  0.00002731  0.39255152  0.93835031    -0.79200
O235        O  0.00030943  0.11051680  0.93740697    -0.78600
O236        O  0.39028454  0.43926620  0.99848264    -0.77100
O237        O  0.10918373  0.43889383  0.99972151    -0.80400
O238        O  0.10905296  0.06432211  0.99925663    -0.78300
O239        O  0.39040445  0.06387580  0.00127579    -0.76900
O240        O  0.43717502  0.50162120  0.89089253    -0.78500
O241        O  0.06306444  0.50249261  0.89105237    -0.80400
O242        O  0.39081196  0.50203506  0.93708730    -0.77100
O243        O  0.10928483  0.50250087  0.93736162    -0.79800
O244        O  0.43654004  0.39303485  0.99929014    -0.75500
O245        O  0.43643143  0.11036119  0.00064494    -0.75600
O246        O  0.06277697  0.11057891  0.99879006    -0.75200
O247        O  0.06281846  0.39277354  0.00103863    -0.78700
O248        O  0.00036792  0.43859277  0.89181016    -0.78100
O249        O  0.00069250  0.06420454  0.89115959    -0.76400
Eu250      Eu  0.00016488  0.42435821  0.00099257     2.39800
Eu251      Eu  0.99994826  0.07934928  0.00041340     2.39600
Eu252      Eu  0.42191343  0.50211158  0.00001405     2.38400
Eu253      Eu  0.07787487  0.50172411  0.00032316     2.39900
Eu254      Eu  0.00033092  0.50177187  0.92253262     2.39800
O255        O  0.03861141  0.04026299  0.96179404    -0.90900
O256        O  0.46105461  0.46351645  0.96133615    -0.89800
C257        C  0.00015861  0.40359026  0.90321439     1.04300
C258        C  0.00061613  0.09926962  0.90233953     1.03000
C259        C  0.40144870  0.40416460  0.99856592     1.02400
C260        C  0.09788338  0.40387170  0.00019778     1.04400
C261        C  0.09782348  0.09937629  0.99861799     1.03300
C262        C  0.40139540  0.09903214  0.00111727     1.02200
C263        C  0.40209556  0.50163315  0.90205218     1.02200
C264        C  0.09811098  0.50265429  0.90225525     1.04900
H265        H  0.44462533  0.05587321  0.94554585     0.32200
O266        O  0.46066294  0.04005976  0.96149643    -1.03000
H267        H  0.05480790  0.44696897  0.94582098     0.34300
O268        O  0.03888946  0.46295103  0.96171556    -1.05600
N269        N  0.24972390  0.99535023  0.69154405    -0.34600
N270        N  0.19087512  0.99787852  0.75042159    -0.55200
N271        N  0.24961819  0.99855409  0.80907336    -0.34600
N272        N  0.30842646  0.99953142  0.75035490    -0.55200
C273        C  0.21847160  0.00223253  0.66989468     0.29000
C274        C  0.28070936  0.00332935  0.66985142     0.29000
C275        C  0.21849443  0.00642011  0.83054509     0.29000
C276        C  0.28072196  0.00637982  0.83057895     0.29000
C277        C  0.16822001  0.99287333  0.71959840     0.37600
C278        C  0.16822381  0.99447233  0.78147723     0.37600
C279        C  0.33104000  0.99454691  0.71946348     0.37600
C280        C  0.33091659  0.99489436  0.78139863     0.37600
C281        C  0.22976311  0.01395074  0.63378339    -0.19900
C282        C  0.26898101  0.01465905  0.63376453    -0.19900
C283        C  0.22998624  0.01910838  0.86627234    -0.19900
C284        C  0.26923212  0.01906363  0.86629894    -0.19900
C285        C  0.13088949  0.98659304  0.73112565    -0.21000
C286        C  0.13090183  0.98755228  0.77030583    -0.21000
C287        C  0.36816722  0.98718430  0.73093977    -0.21000
C288        C  0.36806874  0.98728872  0.77014314    -0.21000
C289        C  0.18008853  0.99704326  0.68127334    -0.16300
C290        C  0.31925596  0.99916402  0.68114504    -0.16300
C291        C  0.31906875  0.00026581  0.81961457    -0.16300
C292        C  0.18010903  0.00052584  0.81955315    -0.16300
H293        H  0.21162847  0.02141017  0.60991106     0.16600
H294        H  0.28681705  0.02270750  0.60986519     0.16600
H295        H  0.21197438  0.02727909  0.89000395     0.16600
H296        H  0.28724427  0.02719916  0.89004280     0.16600
H297        H  0.10607255  0.98257068  0.71318390     0.14900
H298        H  0.10610024  0.98440169  0.78843929     0.14900
H299        H  0.39285683  0.98265063  0.71295090     0.14900
H300        H  0.39269442  0.98294215  0.78826718     0.14900
H301        H  0.24993332  0.98232794  0.71815057     0.28100
H302        H  0.24968174  0.98448969  0.78301477     0.28100
N303        N  0.24937113  0.19299207  0.99802923    -0.34600
N304        N  0.19045186  0.25168998  0.99844243    -0.55200
N305        N  0.24951471  0.31024795  0.99658986    -0.34600
N306        N  0.30834040  0.25153186  0.99860101    -0.55200
C307        C  0.21810010  0.17127951  0.00448667     0.29000
C308        C  0.28039267  0.17112923  0.00526396     0.29000
C309        C  0.21838841  0.33198581  0.00372954     0.29000
C310        C  0.28068208  0.33201639  0.00346599     0.29000
C311        C  0.16800775  0.22076931  0.99319384     0.37600
C312        C  0.16809048  0.28264402  0.99304403     0.37600
C313        C  0.33089629  0.22043347  0.99476815     0.37600
C314        C  0.33094311  0.28241461  0.99354259     0.37600
C315        C  0.22938828  0.13499982  0.01566727    -0.19900
C316        C  0.26864047  0.13490934  0.01617185    -0.19900
C317        C  0.22992676  0.36817516  0.01494089    -0.19900
C318        C  0.26918321  0.36820199  0.01474050    -0.19900
C319        C  0.13102645  0.23214876  0.98485512    -0.21000
C320        C  0.13107833  0.27134460  0.98476030    -0.21000
C321        C  0.36815759  0.23165499  0.98762816    -0.21000
C322        C  0.36817679  0.27086058  0.98680105    -0.21000
C323        C  0.17981090  0.18253114  0.99827600    -0.16300
C324        C  0.31892028  0.18221366  0.00010926    -0.16300
C325        C  0.31910880  0.32079778  0.99789738    -0.16300
C326        C  0.17997399  0.32083068  0.99816104    -0.16300
H327        H  0.21125120  0.11090360  0.02233099     0.16600
H328        H  0.28647758  0.11072229  0.02329881     0.16600
H329        H  0.21194525  0.39224258  0.02212252     0.16600
H330        H  0.28719293  0.39227697  0.02180386     0.16600
H331        H  0.10645592  0.21411959  0.97985472     0.14900
H332        H  0.10656358  0.28942800  0.97966464     0.14900
H333        H  0.39289453  0.21352406  0.98402011     0.14900
H334        H  0.39294177  0.28879736  0.98250573     0.14900
H335        H  0.24952857  0.21961310  0.98515993     0.28100
H336        H  0.24946996  0.28368520  0.98354842     0.28100
C337        C  0.34823568  0.35041900  0.99793890    -0.11300
C338        C  0.37243477  0.37503243  0.99806281    -0.12900
C339        C  0.34797817  0.15254664  0.00093872    -0.11300
C340        C  0.37222876  0.12799481  0.00122851    -0.12900
C341        C  0.12672414  0.37480357  0.99946353    -0.11300
C342        C  0.15090795  0.35031210  0.99877506    -0.12900
C343        C  0.12670969  0.12840714  0.99797696    -0.11300
C344        C  0.15079248  0.15300563  0.99796175    -0.12900
C345        C  0.37314181  0.50098149  0.87309214    -0.11300
C346        C  0.34802942  0.00041382  0.84931677    -0.12900
C347        C  0.15107871  0.00172154  0.84909547    -0.11300
C348        C  0.12705619  0.50252802  0.87318085    -0.12900
C349        C  0.15096726  0.99780263  0.65182221    -0.11300
C350        C  0.12691417  0.99855985  0.62718694    -0.12900
C351        C  0.34851846  0.00077774  0.65171667    -0.11300
C352        C  0.37289771  0.00180840  0.62731526    -0.12900
C353        C  0.00049150  0.12820518  0.87333209    -0.11300
C354        C  0.99993116  0.15253769  0.84896904    -0.12900
C355        C  0.00001886  0.37453118  0.87431561    -0.11300
C356        C  0.99962821  0.35041302  0.84972386    -0.12900
C357        C  0.00321164  0.37506237  0.62740284    -0.11300
C358        C  0.00304328  0.35087160  0.65190452    -0.12900
C359        C  0.99937034  0.12873703  0.62674097    -0.11300
C360        C  0.99952499  0.15298803  0.65122462    -0.12900
N361        N  0.00374435  0.75188146  0.30913147    -0.34600
N362        N  0.00157637  0.69313447  0.25026652    -0.55200
N363        N  0.00193682  0.75211201  0.19169481    -0.34600
N364        N  0.00058305  0.81092854  0.25034068    -0.55200
C365        C  0.99628822  0.72064767  0.33065269     0.29000
C366        C  0.99553978  0.78294410  0.33060978     0.29000
C367        C  0.99500115  0.72103531  0.16981211     0.29000
C368        C  0.99555379  0.78333215  0.16985971     0.29000
C369        C  0.00713116  0.67061046  0.28111485     0.37600
C370        C  0.00586718  0.67065400  0.21916853     0.37600
C371        C  0.00589729  0.83329701  0.28131715     0.37600
C372        C  0.00594694  0.83344595  0.21946453     0.37600
C373        C  0.98377743  0.73204547  0.36646685    -0.19900
C374        C  0.98328481  0.77132382  0.36643268    -0.19900
C375        C  0.98440714  0.73269996  0.13345588    -0.19900
C376        C  0.98479587  0.77196124  0.13347928    -0.19900
C377        C  0.01477552  0.63353580  0.26956121    -0.21000
C378        C  0.01390450  0.63355000  0.23035430    -0.21000
C379        C  0.01413005  0.87034510  0.27008185    -0.21000
C380        C  0.01415434  0.87043852  0.23090265    -0.21000
C381        C  0.00201684  0.68224394  0.31942166    -0.16300
C382        C  0.00074274  0.82140911  0.31947790    -0.16300
C383        C  0.00142919  0.82165860  0.18115760    -0.16300
C384        C  0.00021560  0.68254604  0.18097633    -0.16300
H385        H  0.97583659  0.71395056  0.39021186     0.16600
H386        H  0.97493608  0.78927781  0.39015298     0.16600
H387        H  0.97758599  0.71479930  0.10921575     0.16600
H388        H  0.97828735  0.79005404  0.10929672     0.16600
H389        H  0.01969175  0.60887256  0.28750198     0.14900
H390        H  0.01814074  0.60892208  0.21219398     0.14900
H391        H  0.01920736  0.89484669  0.28820162     0.14900
H392        H  0.01927871  0.89502431  0.21291613     0.14900
H393        H  0.01753395  0.75205538  0.28291061     0.28100
H394        H  0.01449549  0.75203572  0.21847293     0.28100
O395        O  0.99942663  0.61152716  0.06232685    -0.78100
O396        O  0.00170905  0.89278777  0.06321023    -0.79700
O397        O  0.43645160  0.50215809  0.10909037    -0.76700
O398        O  0.06291453  0.50212493  0.10954729    -0.75100
O399        O  0.10891890  0.00114454  0.06330930    -0.76900
O400        O  0.39096230  0.00159787  0.06330501    -0.77800
O401        O  0.00220894  0.93910686  0.10944256    -0.79200
O402        O  0.99969486  0.56548845  0.10884498    -0.79400
Eu403      Eu  0.00000909  0.00185088  0.07799115     2.39200
O404        O  0.03845593  0.96308089  0.03896271    -0.87000
O405        O  0.46074808  0.54084970  0.03883201    -0.90600
C406        C  0.99929869  0.60050116  0.09749357     1.04100
C407        C  0.00242621  0.90403300  0.09826470     1.03900
C408        C  0.40139317  0.50200844  0.09790166     1.03900
C409        C  0.09794156  0.50136979  0.09838091     1.01800
H410        H  0.44555359  0.94678527  0.05566817     0.31500
O411        O  0.46132763  0.96267517  0.03954405    -0.99300
H412        H  0.05512491  0.55701582  0.05471661     0.31500
O413        O  0.03916567  0.54098634  0.03889971    -1.01900
O414        O  0.99955813  0.89272832  0.43710470    -0.79200
O415        O  0.00071714  0.61005436  0.43681496    -0.78600
O416        O  0.39121758  0.93884177  0.50128717    -0.77100
O417        O  0.10933078  0.93844886  0.50094211    -0.80400
O418        O  0.11028801  0.56375073  0.49969206    -0.78300
O419        O  0.39064978  0.56435857  0.50271195    -0.76900
O420        O  0.43725019  0.00085960  0.39132843    -0.78500
O421        O  0.06308595  0.00342752  0.39110504    -0.80400
O422        O  0.39099924  0.00175192  0.43760832    -0.77100
O423        O  0.10933717  0.00270271  0.43738754    -0.79800
O424        O  0.43739434  0.89248292  0.50102314    -0.75500
O425        O  0.43684260  0.61063709  0.50153648    -0.75600
O426        O  0.06394851  0.60987754  0.49852146    -0.75200
O427        O  0.06300121  0.89227378  0.50134103    -0.78700
O428        O  0.99993990  0.93905580  0.39087738    -0.78100
O429        O  0.99953396  0.56387020  0.39048616    -0.76400
Eu430      Eu  0.00019363  0.92389638  0.49999053     2.39800
Eu431      Eu  0.00085757  0.57909037  0.50000939     2.39600
Eu432      Eu  0.42247715  0.00184711  0.50040834     2.38400
Eu433      Eu  0.07802658  0.00129442  0.50017758     2.39900
Eu434      Eu  0.00030562  0.00171905  0.42252042     2.39800
O435        O  0.03921265  0.53993739  0.46139786    -0.90900
O436        O  0.46129424  0.96277907  0.46173839    -0.89800
C437        C  0.99957911  0.90398602  0.40205818     1.04300
C438        C  0.00011516  0.59894316  0.40169872     1.03000
C439        C  0.40233260  0.90373035  0.50130342     1.02400
C440        C  0.09809718  0.90340923  0.50152422     1.04400
C441        C  0.09901976  0.59878556  0.49889483     1.03300
C442        C  0.40180351  0.59942598  0.50253209     1.02200
C443        C  0.40220327  0.00127000  0.40253569     1.02200
C444        C  0.09813529  0.00352032  0.40233518     1.04900
H445        H  0.44503030  0.55690233  0.44610438     0.32200
O446        O  0.46100105  0.54086540  0.46190449    -1.03000
H447        H  0.05515767  0.94666613  0.44511310     0.34300
O448        O  0.03923180  0.96256772  0.46108867    -1.05600
N449        N  0.24970093  0.50821312  0.19221920    -0.34600
N450        N  0.19054701  0.50518399  0.25096698    -0.55200
N451        N  0.24987325  0.49983582  0.30964757    -0.34600
N452        N  0.30899100  0.50275400  0.25082477    -0.55200
C453        C  0.21846817  0.50437851  0.16971220     0.29000
C454        C  0.28078493  0.50384657  0.16961531     0.29000
C455        C  0.21881154  0.50439829  0.33218993     0.29000
C456        C  0.28109507  0.50323912  0.33219855     0.29000
C457        C  0.16746578  0.50516913  0.22007954     0.37600
C458        C  0.16768177  0.50325794  0.28193403     0.37600
C459        C  0.33191969  0.50455156  0.21984856     0.37600
C460        C  0.33203247  0.50205623  0.28176067     0.37600
C461        C  0.22995604  0.49885926  0.13220507    -0.19900
C462        C  0.26909427  0.49850492  0.13214815    -0.19900
C463        C  0.23046548  0.50965026  0.36969993    -0.19900
C464        C  0.26962527  0.50889067  0.36970995    -0.19900
C465        C  0.12961601  0.50340623  0.23152924    -0.21000
C466        C  0.12975178  0.50214798  0.27064828    -0.21000
C467        C  0.36982226  0.50501749  0.23120214    -0.21000
C468        C  0.36989940  0.50338711  0.27032824    -0.21000
C469        C  0.17981186  0.50491502  0.18164711    -0.16300
C470        C  0.31948756  0.50435225  0.18140314    -0.16300
C471        C  0.31971325  0.50186422  0.32024107    -0.16300
C472        C  0.18017624  0.50371704  0.32029737    -0.16300
H473        H  0.21201696  0.49475677  0.10739361     0.16600
H474        H  0.28688905  0.49414227  0.10728115     0.16600
H475        H  0.21263584  0.51403123  0.39454655     0.16600
H476        H  0.28759034  0.51269755  0.39455375     0.16600
H477        H  0.10448608  0.50257207  0.21359192     0.14900
H478        H  0.10472702  0.50056255  0.28868231     0.14900
H479        H  0.39487688  0.50631801  0.21319483     0.14900
H480        H  0.39502370  0.50363756  0.28828995     0.14900
H481        H  0.24985801  0.51581458  0.22076304     0.28100
H482        H  0.24968451  0.49210439  0.28113789     0.28100
N483        N  0.25003593  0.69307773  0.50409254    -0.34600
N484        N  0.19106335  0.75157080  0.50108521    -0.55200
N485        N  0.25024722  0.81002998  0.50224802    -0.34600
N486        N  0.30918687  0.75160413  0.50144342    -0.55200
C487        C  0.21899859  0.67119620  0.49697723     0.29000
C488        C  0.28123320  0.67109311  0.49820218     0.29000
C489        C  0.21901688  0.83162453  0.49512220     0.29000
C490        C  0.28133940  0.83165663  0.49457536     0.29000
C491        C  0.16878665  0.72065453  0.50702507     0.37600
C492        C  0.16899396  0.78251472  0.50757239     0.37600
C493        C  0.33152928  0.72075774  0.50752236     0.37600
C494        C  0.33166428  0.78261170  0.50609395     0.37600
C495        C  0.23065044  0.63468015  0.48704935    -0.19900
C496        C  0.26985350  0.63459434  0.48791128    -0.19900
C497        C  0.23041015  0.86752029  0.48289818    -0.19900
C498        C  0.26969792  0.86753730  0.48254855    -0.19900
C499        C  0.13219476  0.73198609  0.51691153    -0.21000
C500        C  0.13234991  0.77120310  0.51737582    -0.21000
C501        C  0.36856393  0.73220922  0.51546836    -0.21000
C502        C  0.36865404  0.77138557  0.51455742    -0.21000
C503        C  0.18051399  0.68248062  0.50154096    -0.16300
C504        C  0.31959878  0.68243779  0.50361250    -0.16300
C505        C  0.31977443  0.82077178  0.50069194    -0.16300
C506        C  0.18072817  0.82068162  0.50199034    -0.16300
H507        H  0.21277612  0.61040941  0.48032226     0.16600
H508        H  0.28790738  0.61028267  0.48184955     0.16600
H509        H  0.21231162  0.89144369  0.47554877     0.16600
H510        H  0.28764461  0.89146514  0.47485487     0.16600
H511        H  0.10792309  0.71390178  0.52304501     0.14900
H512        H  0.10815404  0.78929919  0.52378067     0.14900
H513        H  0.39304505  0.71422074  0.52103089     0.14900
H514        H  0.39322073  0.78949240  0.51927971     0.14900
H515        H  0.24991806  0.72004310  0.51624223     0.28100
H516        H  0.25031504  0.78387678  0.51609763     0.28100
C517        C  0.34878050  0.85044386  0.50101303    -0.11300
C518        C  0.37321205  0.87478117  0.50141191    -0.12900
C519        C  0.34866277  0.65293305  0.50374400    -0.11300
C520        C  0.37284178  0.62841524  0.50336872    -0.12900
C521        C  0.12713450  0.87443632  0.50219101    -0.11300
C522        C  0.15162790  0.85019314  0.50227804    -0.12900
C523        C  0.12774727  0.62801983  0.49906037    -0.11300
C524        C  0.15144668  0.65299369  0.50008988    -0.12900
C525        C  0.37326299  0.00140492  0.37352888    -0.11300
C526        C  0.34886635  0.50217956  0.34969838    -0.12900
C527        C  0.15113773  0.50456849  0.34968598    -0.11300
C528        C  0.12714183  0.00418316  0.37342289    -0.12900
C529        C  0.15073252  0.50302660  0.15217384    -0.11300
C530        C  0.12675764  0.50178922  0.12749036    -0.12900
C531        C  0.34851238  0.50310137  0.15176843    -0.11300
C532        C  0.37249311  0.50230540  0.12702165    -0.12900
C533        C  0.00028368  0.62812205  0.37277785    -0.11300
C534        C  0.00093833  0.65283655  0.34871039    -0.12900
C535        C  0.99946974  0.87500996  0.37311155    -0.11300
C536        C  0.99981647  0.85054894  0.34888211    -0.12900
C537        C  0.00285732  0.87506940  0.12727102    -0.11300
C538        C  0.00230154  0.85073879  0.15165297    -0.12900
C539        C  0.99899406  0.62952934  0.12653926    -0.11300
C540        C  0.99929848  0.65350823  0.15133292    -0.12900
N541        N  0.99588799  0.75245693  0.80849178    -0.34600
N542        N  0.99856869  0.69419886  0.74928667    -0.55200
N543        N  0.99717099  0.75282802  0.69055399    -0.34600
N544        N  0.99838212  0.81122907  0.74971940    -0.55200
C545        C  0.00476570  0.72134926  0.82965113     0.29000
C546        C  0.00417855  0.78361168  0.82977557     0.29000
C547        C  0.00484890  0.72175966  0.66897914     0.29000
C548        C  0.00574912  0.78392878  0.66940287     0.29000
C549        C  0.99306582  0.67167081  0.78019743     0.37600
C550        C  0.99258168  0.67198610  0.71823747     0.37600
C551        C  0.99222581  0.83353652  0.78060659     0.37600
C552        C  0.99328930  0.83366379  0.71873778     0.37600
C553        C  0.01823052  0.73289381  0.86506047    -0.19900
C554        C  0.01787656  0.77218275  0.86513564    -0.19900
C555        C  0.01792234  0.73324634  0.63338772    -0.19900
C556        C  0.01857625  0.77251771  0.63367821    -0.19900
C557        C  0.98379320  0.63499509  0.76870592    -0.21000
C558        C  0.98341917  0.63520810  0.72950777    -0.21000
C559        C  0.98333013  0.87036718  0.76919421    -0.21000
C560        C  0.98401499  0.87045232  0.72998954    -0.21000
C561        C  0.99931848  0.68292833  0.81846337    -0.16300
C562        C  0.99795105  0.82193868  0.81879868    -0.16300
C563        C  0.99997777  0.82218646  0.68067689    -0.16300
C564        C  0.99847628  0.68350025  0.67999688    -0.16300
H565        H  0.02741389  0.71488987  0.88842420     0.16600
H566        H  0.02676078  0.79026836  0.88855893     0.16600
H567        H  0.02601420  0.71523489  0.60962284     0.16600
H568        H  0.02720795  0.79058664  0.61014461     0.16600
H569        H  0.97841969  0.61047075  0.78668785     0.14900
H570        H  0.97775188  0.61086023  0.71136792     0.14900
H571        H  0.97771296  0.89480888  0.78722980     0.14900
H572        H  0.97896476  0.89495738  0.71186849     0.14900
H573        H  0.98127694  0.75242798  0.78267621     0.28100
H574        H  0.98291367  0.75285226  0.71653706     0.28100
O575        O  0.00098216  0.61118016  0.56249456    -0.78100
O576        O  0.00124166  0.89276131  0.56283729    -0.79700
O577        O  0.43743245  0.50159814  0.60977071    -0.76700
O578        O  0.06376507  0.50112454  0.60932620    -0.75100
O579        O  0.10940391  0.99955843  0.56301359    -0.76900
O580        O  0.39080849  0.00213208  0.56316499    -0.77800
O581        O  0.00200891  0.93914333  0.60901425    -0.79200
O582        O  0.00026919  0.56524961  0.60911610    -0.79400
Eu583      Eu  0.00035364  0.00168311  0.57766197     2.39200
O584        O  0.03878274  0.96287366  0.53864092    -0.87000
O585        O  0.46160676  0.54023736  0.53960528    -0.90600
C586        C  0.00046421  0.60027935  0.59766377     1.04100
C587        C  0.00197473  0.90411137  0.59784602     1.03900
C588        C  0.40235517  0.50196337  0.59860205     1.03900
C589        C  0.09879850  0.50084027  0.59801842     1.01800
H590        H  0.44550587  0.94730070  0.55510708     0.31500
O591        O  0.46143082  0.96313144  0.53908271    -0.99300
H592        H  0.05569838  0.55653608  0.55506641     0.31500
O593        O  0.03964920  0.54058579  0.53925768    -1.01900
O594        O  0.99925627  0.89267645  0.93728463    -0.79200
O595        O  0.00134577  0.61089034  0.93637822    -0.78600
O596        O  0.39112628  0.93795707  0.00100163    -0.77100
O597        O  0.10869870  0.93853139  0.00163134    -0.80400
O598        O  0.10959767  0.56431230  0.99960726    -0.78300
O599        O  0.39022198  0.56484755  0.00131952    -0.76900
O600        O  0.43625592  0.00027533  0.89169890    -0.78500
O601        O  0.06292410  0.00213979  0.89158334    -0.80400
O602        O  0.39012491  0.00063061  0.93808218    -0.77100
O603        O  0.10926965  0.00182640  0.93776768    -0.79800
O604        O  0.43729830  0.89162830  0.00134730    -0.75500
O605        O  0.43639409  0.61118304  0.00127127    -0.75600
O606        O  0.06331870  0.61055079  0.99860937    -0.75200
O607        O  0.06237308  0.89234830  0.00121683    -0.78700
O608        O  0.99971038  0.93902445  0.89110114    -0.78100
O609        O  0.00157501  0.56447741  0.89028351    -0.76400
Eu610      Eu  0.99985350  0.92404558  0.00032906     2.39800
Eu611      Eu  0.00041035  0.57957457  0.99960404     2.39600
Eu612      Eu  0.42221032  0.00111235  0.00059556     2.38400
Eu613      Eu  0.07757944  0.00154948  0.00042322     2.39900
Eu614      Eu  0.99996311  0.00159874  0.92283371     2.39800
O615        O  0.03911643  0.54033895  0.96135592    -0.90900
O616        O  0.46093133  0.96224723  0.96184167    -0.89800
C617        C  0.99937659  0.90394264  0.90219923     1.04300
C618        C  0.00176060  0.59966224  0.90126367     1.03000
C619        C  0.40221244  0.90284039  0.00127956     1.02400
C620        C  0.09742467  0.90348172  0.00173236     1.04400
C621        C  0.09835588  0.59935273  0.99883034     1.03300
C622        C  0.40132789  0.59994909  0.00158432     1.02200
C623        C  0.40120489  0.00032789  0.90296342     1.02200
C624        C  0.09800972  0.00212020  0.90271497     1.04900
H625        H  0.44488067  0.55690199  0.94523255     0.32200
O626        O  0.46081847  0.54096000  0.96115803    -1.03000
H627        H  0.05478555  0.94668684  0.94560261     0.34300
O628        O  0.03886284  0.96266047  0.96150510    -1.05600
N629        N  0.25045947  0.49944213  0.69178069    -0.34600
N630        N  0.19129107  0.50067019  0.75016728    -0.55200
N631        N  0.25000457  0.49862202  0.80873356    -0.34600
N632        N  0.30910778  0.49883476  0.75034657    -0.55200
C633        C  0.21940392  0.50724738  0.67019243     0.29000
C634        C  0.28166330  0.50701109  0.67030791     0.29000
C635        C  0.21889655  0.50573971  0.83051914     0.29000
C636        C  0.28118963  0.50490877  0.83064144     0.29000
C637        C  0.16909001  0.49523306  0.71911502     0.37600
C638        C  0.16880013  0.49515312  0.78100865     0.37600
C639        C  0.33177402  0.49477260  0.71943333     0.37600
C640        C  0.33153014  0.49386644  0.78129935     0.37600
C641        C  0.23100921  0.51964133  0.63441324    -0.19900
C642        C  0.27026612  0.51948210  0.63448004    -0.19900
C643        C  0.23047639  0.51627894  0.86689728    -0.19900
C644        C  0.26972076  0.51575263  0.86697531    -0.19900
C645        C  0.13213965  0.48648521  0.73026972    -0.21000
C646        C  0.13195240  0.48645746  0.76949859    -0.21000
C647        C  0.36895216  0.48733314  0.73078855    -0.21000
C648        C  0.36878844  0.48670636  0.76998944    -0.21000
C649        C  0.18102664  0.50097313  0.68102759    -0.16300
C650        C  0.32001119  0.50086885  0.68136097    -0.16300
C651        C  0.31958792  0.49912085  0.81945765    -0.16300
C652        C  0.18044947  0.50060079  0.81923892    -0.16300
H653        H  0.21306346  0.52753637  0.61054047     0.16600
H654        H  0.28834341  0.52725837  0.61066889     0.16600
H655        H  0.21253066  0.52309547  0.89109831     0.16600
H656        H  0.28773489  0.52214574  0.89124155     0.16600
H657        H  0.10772299  0.48131005  0.71207311     0.14900
H658        H  0.10738938  0.48117991  0.78746246     0.14900
H659        H  0.39377820  0.48369799  0.71277532     0.14900
H660        H  0.39347375  0.48248687  0.78807113     0.14900
H661        H  0.25028669  0.48538375  0.71783054     0.28100
H662        H  0.24991000  0.48601884  0.78197710     0.28100
N663        N  0.24925610  0.69303860  0.99717575    -0.34600
N664        N  0.19044453  0.75163764  0.00035437    -0.55200
N665        N  0.24915446  0.81034897  0.99881602    -0.34600
N666        N  0.30767808  0.75168511  0.99813368    -0.55200
C667        C  0.21815872  0.67190278  0.00579731     0.29000
C668        C  0.28031887  0.67182988  0.00585462     0.29000
C669        C  0.21807771  0.83175875  0.00695837     0.29000
C670        C  0.28035756  0.83190682  0.00608049     0.29000
C671        C  0.16862816  0.72081451  0.99252073     0.37600
C672        C  0.16843793  0.78262917  0.99382865     0.37600
C673        C  0.33009835  0.72073840  0.99278695     0.37600
C674        C  0.33012704  0.78265138  0.99309777     0.37600
C675        C  0.22952511  0.63667192  0.01983612    -0.19900
C676        C  0.26879919  0.63662770  0.01987565    -0.19900
C677        C  0.22963488  0.86761821  0.01916855    -0.19900
C678        C  0.26893228  0.86771614  0.01858966    -0.19900
C679        C  0.13249581  0.73222795  0.98119300    -0.21000
C680        C  0.13235419  0.77144025  0.98207663    -0.21000
C681        C  0.36700983  0.73208492  0.98429292    -0.21000
C682        C  0.36703347  0.77128309  0.98449909    -0.21000
C683        C  0.18003815  0.68268601  0.99860683    -0.16300
C684        C  0.31861166  0.68266103  0.99937977    -0.16300
C685        C  0.31867184  0.82079247  0.99964516    -0.16300
C686        C  0.17977120  0.82066401  0.00081196    -0.16300
H687        H  0.21141795  0.61330511  0.02878846     0.16600
H688        H  0.28680801  0.61321997  0.02891735     0.16600
H689        H  0.21164646  0.89144379  0.02710679     0.16600
H690        H  0.28700416  0.89160748  0.02610455     0.16600
H691        H  0.10862598  0.71418616  0.97354854     0.14900
H692        H  0.10837724  0.78961931  0.97512017     0.14900
H693        H  0.39160903  0.71403007  0.97955510     0.14900
H694        H  0.39166660  0.78932009  0.97989445     0.14900
H695        H  0.24918318  0.71853572  0.98202175     0.28100
H696        H  0.24896577  0.78420057  0.98491639     0.28100
C697        C  0.34813688  0.85000321  0.00088314    -0.11300
C698        C  0.37297338  0.87394966  0.00138434    -0.12900
C699        C  0.34783690  0.65328083  0.00096293    -0.11300
C700        C  0.37222998  0.62892254  0.00173160    -0.12900
C701        C  0.12628940  0.87440760  0.00209361    -0.11300
C702        C  0.15052714  0.84995132  0.00176517    -0.12900
C703        C  0.12717985  0.62840992  0.99840814    -0.11300
C704        C  0.15111865  0.65312679  0.99838305    -0.12900
C705        C  0.37215756  0.00029472  0.87395123    -0.11300
C706        C  0.34872929  0.50011634  0.84883788    -0.12900
C707        C  0.15122712  0.50176101  0.84862332    -0.11300
C708        C  0.12691192  0.00216858  0.87363967    -0.12900
C709        C  0.15213086  0.50110296  0.65136489    -0.11300
C710        C  0.12787527  0.50089072  0.62691274    -0.12900
C711        C  0.34911971  0.50184576  0.65195304    -0.11300
C712        C  0.37342677  0.50210387  0.62758327    -0.12900
C713        C  0.00193865  0.62876680  0.87203777    -0.11300
C714        C  0.00113070  0.65336062  0.84772779    -0.12900
C715        C  0.99917674  0.87509978  0.87300767    -0.11300
C716        C  0.99877524  0.85105421  0.84830649    -0.12900
C717        C  0.00224818  0.87538090  0.62689045    -0.11300
C718        C  0.00155336  0.85134577  0.65145289    -0.12900
C719        C  0.99996921  0.62961752  0.62641975    -0.11300
C720        C  0.99931559  0.65422670  0.65058963    -0.12900
N721        N  0.49969198  0.25204738  0.30923076    -0.34600
N722        N  0.49857032  0.19358786  0.25011674    -0.55200
N723        N  0.50243314  0.25207280  0.19121081    -0.34600
N724        N  0.49907240  0.31058444  0.25032976    -0.55200
C725        C  0.49218991  0.22085721  0.33070364     0.29000
C726        C  0.49217204  0.28317321  0.33079580     0.29000
C727        C  0.49285785  0.22103314  0.17034679     0.29000
C728        C  0.49305272  0.28322172  0.17044481     0.29000
C729        C  0.50530674  0.17155080  0.28112434     0.37600
C730        C  0.50638657  0.17171732  0.21922747     0.37600
C731        C  0.50553973  0.33262508  0.28140540     0.37600
C732        C  0.50697707  0.33243183  0.21945619     0.37600
C733        C  0.48012166  0.23227073  0.36668765    -0.19900
C734        C  0.48009370  0.27163168  0.36674595    -0.19900
C735        C  0.47742480  0.23253444  0.13574276    -0.19900
C736        C  0.47754535  0.27188120  0.13580087    -0.19900
C737        C  0.51711411  0.13553464  0.26981843    -0.21000
C738        C  0.51785685  0.13566491  0.23063445    -0.21000
C739        C  0.51735300  0.36866303  0.27016376    -0.21000
C740        C  0.51837525  0.36849971  0.23094472    -0.21000
C741        C  0.49872111  0.18264064  0.31937818    -0.16300
C742        C  0.49868048  0.32143593  0.31961703    -0.16300
C743        C  0.50045301  0.32134251  0.18122430    -0.16300
C744        C  0.50006326  0.18286110  0.18101490    -0.16300
H745        H  0.47263147  0.21415940  0.39057485     0.16600
H746        H  0.47258418  0.28965200  0.39070113     0.16600
H747        H  0.46722781  0.21446457  0.11284822     0.16600
H748        H  0.46745920  0.29005530  0.11294193     0.16600
H749        H  0.52423464  0.11155355  0.28792803     0.14900
H750        H  0.52551642  0.11179779  0.21259136     0.14900
H751        H  0.52425032  0.39267338  0.28832655     0.14900
H752        H  0.52603556  0.39238701  0.21292821     0.14900
H753        H  0.51339924  0.25206210  0.28296535     0.28100
H754        H  0.51842623  0.25200083  0.21624730     0.28100
O755        O  0.49951453  0.11067015  0.06319496    -0.78100
O756        O  0.49970976  0.39308103  0.06327284    -0.79700
O757        O  0.93703818  0.00135360  0.10926554    -0.76700
O758        O  0.56320314  0.00160219  0.10907089    -0.75100
O759        O  0.60856432  0.50088391  0.06337855    -0.76900
O760        O  0.89152218  0.50376453  0.06348712    -0.77800
O761        O  0.49952699  0.43930516  0.10958420    -0.79200
O762        O  0.50058643  0.06464905  0.10969580    -0.79400
Eu763      Eu  0.49939713  0.50212047  0.07792460     2.39200
O764        O  0.53818793  0.46325017  0.03920794    -0.87000
O765        O  0.96122620  0.04052042  0.03915171    -0.90600
C766        C  0.50006766  0.09969977  0.09837779     1.04100
C767        C  0.49970180  0.40421165  0.09839573     1.03900
C768        C  0.90195909  0.00146690  0.09808989     1.03900
C769        C  0.59822223  0.00157280  0.09778750     1.01800
H770        H  0.94535659  0.44753294  0.05579092     0.31500
O771        O  0.96133102  0.46326748  0.03970597    -0.99300
H772        H  0.55481810  0.05675814  0.05458706     0.31500
O773        O  0.53878913  0.04070853  0.03886349    -1.01900
O774        O  0.49917047  0.39299882  0.43754796    -0.79200
O775        O  0.49982320  0.11016104  0.43641932    -0.78600
O776        O  0.89117411  0.43897121  0.49908822    -0.77100
O777        O  0.60893329  0.43872853  0.50038219    -0.80400
O778        O  0.60914764  0.06437494  0.49949609    -0.78300
O779        O  0.89130805  0.06422320  0.50089024    -0.76900
O780        O  0.93756824  0.50123235  0.39088854    -0.78500
O781        O  0.56287329  0.50195504  0.39146904    -0.80400
O782        O  0.89150546  0.50153963  0.43732245    -0.77100
O783        O  0.60912797  0.50169641  0.43771850    -0.79800
O784        O  0.93740590  0.39273043  0.50036468    -0.75500
O785        O  0.93762637  0.11043689  0.50068512    -0.75600
O786        O  0.56301585  0.11075149  0.49837021    -0.75200
O787        O  0.56268503  0.39249717  0.50048169    -0.78700
O788        O  0.49917107  0.43936889  0.39136772    -0.78100
O789        O  0.50055736  0.06380399  0.39024212    -0.76400
Eu790      Eu  0.49996536  0.42418506  0.50060372     2.39800
Eu791      Eu  0.50011423  0.07940541  0.49975229     2.39600
Eu792      Eu  0.92291218  0.50162644  0.50036066     2.38400
Eu793      Eu  0.57753720  0.50164357  0.50051677     2.39900
Eu794      Eu  0.50000206  0.50215365  0.42303159     2.39800
O795        O  0.53881484  0.04012415  0.46140692    -0.90900
O796        O  0.96153302  0.46270149  0.46166771    -0.89800
C797        C  0.49894773  0.40424953  0.40246706     1.04300
C798        C  0.50010781  0.09894001  0.40133423     1.03000
C799        C  0.90234713  0.40389465  0.49942928     1.02400
C800        C  0.59776459  0.40364356  0.50029453     1.04400
C801        C  0.59806321  0.09946900  0.49871826     1.03300
C802        C  0.90252546  0.09928645  0.50107362     1.02200
C803        C  0.90254552  0.50135745  0.40217122     1.02200
C804        C  0.59796587  0.50176289  0.40262155     1.04900
H805        H  0.94546171  0.05635549  0.44546730     0.32200
O806        O  0.96142544  0.04042813  0.46138343    -1.03000
H807        H  0.55448538  0.44710208  0.44567989     0.34300
O808        O  0.53864259  0.46303735  0.46169353    -1.05600
N809        N  0.74993424  0.00305688  0.19160928    -0.34600
N810        N  0.69094751  0.00214915  0.25028351    -0.55200
N811        N  0.75012636  0.00518342  0.30897424    -0.34600
N812        N  0.80900999  0.00246143  0.25014980    -0.55200
C813        C  0.71876484  0.99640788  0.16978685     0.29000
C814        C  0.78106504  0.99655598  0.16969003     0.29000
C815        C  0.71895372  0.99855857  0.33084463     0.29000
C816        C  0.78128152  0.99816776  0.33076905     0.29000
C817        C  0.66861754  0.00754798  0.21926489     0.37600
C818        C  0.66867060  0.00824980  0.28119373     0.37600
C819        C  0.83144135  0.00718061  0.21911599     0.37600
C820        C  0.83161783  0.00730560  0.28103608     0.37600
C821        C  0.73025225  0.98586888  0.13336592    -0.19900
C822        C  0.76950566  0.98598731  0.13329884    -0.19900
C823        C  0.73047296  0.98803284  0.36724629    -0.19900
C824        C  0.76971511  0.98777988  0.36719499    -0.19900
C825        C  0.63181743  0.01674128  0.23054548    -0.21000
C826        C  0.63184048  0.01714512  0.26976689    -0.21000
C827        C  0.86861669  0.01480272  0.23036135    -0.21000
C828        C  0.86874107  0.01480533  0.26956700    -0.21000
C829        C  0.68038131  0.00210201  0.18102742    -0.16300
C830        C  0.81949508  0.00206661  0.18090087    -0.16300
C831        C  0.81982384  0.00243876  0.31932124    -0.16300
C832        C  0.68047551  0.00350873  0.31949535    -0.16300
H833        H  0.71224537  0.97933968  0.10912705     0.16600
H834        H  0.78746483  0.97952210  0.10901037     0.16600
H835        H  0.71248636  0.98133678  0.39144782     0.16600
H836        H  0.78767594  0.98083874  0.39134926     0.16600
H837        H  0.60742792  0.02230718  0.21242735     0.14900
H838        H  0.60747369  0.02308182  0.28779564     0.14900
H839        H  0.89321749  0.01930160  0.21223621     0.14900
H840        H  0.89343940  0.01935100  0.28754869     0.14900
H841        H  0.74994024  0.01556258  0.21840085     0.28100
H842        H  0.75012054  0.01752712  0.28208388     0.28100
N843        N  0.75041227  0.19242327  0.49848038    -0.34600
N844        N  0.69160501  0.25153722  0.49894932    -0.55200
N845        N  0.75031059  0.31059614  0.49555005    -0.34600
N846        N  0.80912537  0.25153486  0.50110695    -0.55200
C847        C  0.71916286  0.17088644  0.50558591     0.29000
C848        C  0.78140077  0.17096137  0.50690531     0.29000
C849        C  0.71913135  0.33274848  0.50100695     0.29000
C850        C  0.78140388  0.33269260  0.50157298     0.29000
C851        C  0.66895856  0.22047707  0.49510246     0.37600
C852        C  0.66882893  0.28242938  0.49446533     0.37600
C853        C  0.83174918  0.22045499  0.49720433     0.37600
C854        C  0.83177153  0.28237466  0.49575236     0.37600
C855        C  0.73044513  0.13505778  0.51817243    -0.19900
C856        C  0.76970832  0.13512062  0.51904657    -0.19900
C857        C  0.73061400  0.36968306  0.50957250    -0.19900
C858        C  0.76984241  0.36964012  0.50996108    -0.19900
C859        C  0.63158370  0.23174569  0.48873941    -0.21000
C860        C  0.63149001  0.27088668  0.48843408    -0.21000
C861        C  0.86898506  0.23165601  0.49000983    -0.21000
C862        C  0.86901222  0.27079611  0.48916855    -0.21000
C863        C  0.68084861  0.18214103  0.49962025    -0.16300
C864        C  0.81987269  0.18216993  0.50203972    -0.16300
C865        C  0.81989842  0.32089873  0.49836377    -0.16300
C866        C  0.68063516  0.32094355  0.49759374    -0.16300
H867        H  0.71228012  0.11134335  0.52603086     0.16600
H868        H  0.78759896  0.11144825  0.52763848     0.16600
H869        H  0.71262291  0.39415814  0.51517057     0.16600
H870        H  0.78778244  0.39407295  0.51589587     0.16600
H871        H  0.60680823  0.21366664  0.48517966     0.14900
H872        H  0.60666184  0.28880297  0.48443139     0.14900
H873        H  0.89365601  0.21352882  0.48597681     0.14900
H874        H  0.89369444  0.28868947  0.48427283     0.14900
H875        H  0.75065373  0.21862785  0.48470206     0.28100
H876        H  0.75044893  0.28298309  0.48498738     0.28100
C877        C  0.84915812  0.35031094  0.49851653    -0.11300
C878        C  0.87338296  0.37483283  0.49883437    -0.12900
C879        C  0.84900600  0.15260153  0.50232202    -0.11300
C880        C  0.87346833  0.12829215  0.50181919    -0.12900
C881        C  0.62679887  0.37459835  0.49954505    -0.11300
C882        C  0.65122474  0.35025582  0.49858326    -0.12900
C883        C  0.62721328  0.12835492  0.49872118    -0.11300
C884        C  0.65172265  0.15259456  0.49924439    -0.12900
C885        C  0.87343290  0.50132659  0.37320612    -0.11300
C886        C  0.84914922  0.00066772  0.34863507    -0.12900
C887        C  0.65125763  0.00265590  0.34892636    -0.11300
C888        C  0.62702125  0.50135593  0.37356657    -0.12900
C889        C  0.65130331  0.00187641  0.15146647    -0.11300
C890        C  0.62721914  0.00169558  0.12680915    -0.12900
C891        C  0.84859479  0.00157610  0.15140527    -0.11300
C892        C  0.87296268  0.00138712  0.12705958    -0.12900
C893        C  0.49953087  0.12811478  0.37236720    -0.11300
C894        C  0.49890690  0.15307394  0.34853132    -0.12900
C895        C  0.49855010  0.37523869  0.37335447    -0.11300
C896        C  0.49843170  0.35080301  0.34897699    -0.12900
C897        C  0.49988263  0.37509929  0.12743548    -0.11300
C898        C  0.50010732  0.35064566  0.15180407    -0.12900
C899        C  0.50011876  0.12897071  0.12730245    -0.11300
C900        C  0.50002927  0.15358546  0.15153247    -0.12900
N901        N  0.50092104  0.25128101  0.80911231    -0.34600
N902        N  0.50112359  0.19247978  0.75035138    -0.55200
N903        N  0.50202012  0.25151483  0.69206107    -0.34600
N904        N  0.49965235  0.31034115  0.75073503    -0.55200
C905        C  0.49490419  0.21992909  0.83085132     0.29000
C906        C  0.49363196  0.28228987  0.83099143     0.29000
C907        C  0.49392016  0.22043309  0.67057964     0.29000
C908        C  0.49399718  0.28271719  0.67074230     0.29000
C909        C  0.50748186  0.17024118  0.78122689     0.37600
C910        C  0.50704097  0.17034865  0.71929430     0.37600
C911        C  0.50564431  0.33242475  0.78181933     0.37600
C912        C  0.50663832  0.33245878  0.71988707     0.37600
C913        C  0.48380430  0.23116518  0.86720057    -0.19900
C914        C  0.48293062  0.27048119  0.86726637    -0.19900
C915        C  0.48073621  0.23204168  0.63508172    -0.19900
C916        C  0.48081440  0.27133858  0.63517632    -0.19900
C917        C  0.51724356  0.13363480  0.76970449    -0.21000
C918        C  0.51692115  0.13369687  0.73046612    -0.21000
C919        C  0.51613775  0.36891362  0.77063952    -0.21000
C920        C  0.51681256  0.36891865  0.73140321    -0.21000
C921        C  0.50172303  0.18170694  0.81950898    -0.16300
C922        C  0.49952568  0.32075054  0.81998176    -0.16300
C923        C  0.50092778  0.32097150  0.68163662    -0.16300
C924        C  0.50073505  0.18208208  0.68121806    -0.16300
H925        H  0.47768225  0.21297462  0.89141180     0.16600
H926        H  0.47606808  0.28831917  0.89154464     0.16600
H927        H  0.47243687  0.21407454  0.61135720     0.16600
H928        H  0.47257693  0.28945891  0.61155071     0.16600
H929        H  0.52336305  0.10926448  0.78767684     0.14900
H930        H  0.52271925  0.10940526  0.71228038     0.14900
H931        H  0.52234482  0.39309628  0.78883280     0.14900
H932        H  0.52350663  0.39312643  0.71342297     0.14900
H933        H  0.51374485  0.25155383  0.78245772     0.28100
H934        H  0.51666418  0.25148969  0.71782951     0.28100
O935        O  0.50018423  0.11119831  0.56252017    -0.78100
O936        O  0.50061819  0.39240820  0.56336572    -0.79700
O937        O  0.93767755  0.00115736  0.60954580    -0.76700
O938        O  0.56262965  0.00000792  0.60957705    -0.75100
O939        O  0.60998877  0.50108453  0.56275935    -0.76900
O940        O  0.89131874  0.50231934  0.56311055    -0.77800
O941        O  0.50144159  0.43854725  0.60977460    -0.79200
O942        O  0.50014027  0.06505532  0.60894056    -0.79400
Eu943      Eu  0.50040165  0.50161536  0.57854031     2.39200
O944        O  0.53885418  0.46288695  0.53938447    -0.87000
O945        O  0.96164198  0.04024659  0.53876912    -0.90600
C946        C  0.50016707  0.10010540  0.59765940     1.04100
C947        C  0.50123513  0.40347478  0.59850241     1.03900
C948        C  0.90258241  0.00124181  0.59839624     1.03900
C949        C  0.59769982  0.99994584  0.59842906     1.01800
H950        H  0.94570687  0.44701784  0.55558173     0.31500
O951        O  0.96159984  0.46294209  0.53960134    -0.99300
H952        H  0.55489140  0.05665071  0.55481459     0.31500
O953        O  0.53889878  0.04071870  0.53893345    -1.01900
O954        O  0.49968025  0.39254883  0.93780069    -0.79200
O955        O  0.50021779  0.11002109  0.93694339    -0.78600
O956        O  0.89121015  0.43908403  0.00073974    -0.77100
O957        O  0.60857366  0.43924643  0.00028174    -0.80400
O958        O  0.60869021  0.06450652  0.99859685    -0.78300
O959        O  0.89080134  0.06448976  0.00158845    -0.76900
O960        O  0.93750681  0.50081853  0.89114630    -0.78500
O961        O  0.56333648  0.50323578  0.89151846    -0.80400
O962        O  0.89142439  0.50066789  0.93760194    -0.77100
O963        O  0.60932277  0.50310536  0.93804469    -0.79800
O964        O  0.93737728  0.39275706  0.00085469    -0.75500
O965        O  0.93704463  0.11074855  0.00144878    -0.75600
O966        O  0.56245601  0.11079206  0.99833412    -0.75200
O967        O  0.56229591  0.39303820  0.00036195    -0.78700
O968        O  0.49990463  0.43875526  0.89144941    -0.78100
O969        O  0.50015773  0.06362250  0.89077189    -0.76400
Eu970      Eu  0.49947289  0.42448734  0.00029333     2.39800
Eu971      Eu  0.49952551  0.07920746  0.00011730     2.39600
Eu972      Eu  0.92280639  0.50189337  0.00044349     2.38400
Eu973      Eu  0.57707966  0.50201773  0.00049646     2.39900
Eu974      Eu  0.49997170  0.50212199  0.92242052     2.39800
O975        O  0.53790569  0.03989146  0.96156600    -0.90900
O976        O  0.96172925  0.46313411  0.96182016    -0.89800
C977        C  0.49975449  0.40365107  0.90270108     1.04300
C978        C  0.50053286  0.09872751  0.90189120     1.03000
C979        C  0.90231575  0.40397823  0.00074387     1.02400
C980        C  0.59737164  0.40418520  0.00029600     1.04400
C981        C  0.59755618  0.09959622  0.99812648     1.03300
C982        C  0.90196667  0.09957708  0.00187535     1.02200
C983        C  0.90249219  0.50036204  0.90248552     1.02200
C984        C  0.59838886  0.50337469  0.90287645     1.04900
H985        H  0.94518527  0.05647720  0.94565867     0.32200
O986        O  0.96113183  0.04053413  0.96157509    -1.03000
H987        H  0.55448815  0.44738430  0.94554859     0.34300
O988        O  0.53846892  0.46325024  0.96145460    -1.05600
N989        N  0.74995439  0.00436552  0.69161413    -0.34600
N990        N  0.69091582  0.00371011  0.75042885    -0.55200
N991        N  0.74976426  0.00496379  0.80915024    -0.34600
N992        N  0.80878513  0.00282758  0.75039708    -0.55200
C993        C  0.71879303  0.99769576  0.66975899     0.29000
C994        C  0.78114321  0.99794311  0.66970586     0.29000
C995        C  0.71851845  0.99829380  0.83088143     0.29000
C996        C  0.78083139  0.99743056  0.83086101     0.29000
C997        C  0.66837496  0.00779767  0.71937846     0.37600
C998        C  0.66832897  0.00875851  0.78130635     0.37600
C999        C  0.83133341  0.00786590  0.71946464     0.37600
C1000       C  0.83121644  0.00771276  0.78143367     0.37600
C1001       C  0.73036138  0.98750272  0.63325792    -0.19900
C1002       C  0.76962269  0.98766934  0.63322447    -0.19900
C1003       C  0.72989417  0.98678949  0.86704140    -0.19900
C1004       C  0.76916143  0.98621573  0.86702036    -0.19900
C1005       C  0.63114507  0.01517533  0.73061569    -0.21000
C1006       C  0.63112052  0.01581138  0.76981079    -0.21000
C1007       C  0.86838816  0.01566557  0.73093736    -0.21000
C1008       C  0.86832060  0.01554726  0.77014816    -0.21000
C1009       C  0.68027729  0.00236299  0.68117572    -0.16300
C1010       C  0.81961923  0.00294744  0.68111685    -0.16300
C1011       C  0.81932972  0.00258837  0.81968708    -0.16300
C1012       C  0.68014621  0.00416347  0.81962566    -0.16300
H1013       H  0.71239893  0.98094231  0.60899439     0.16600
H1014       H  0.78761130  0.98124167  0.60894850     0.16600
H1015       H  0.71179841  0.97977486  0.89107500     0.16600
H1016       H  0.78706920  0.97873350  0.89105656     0.16600
H1017       H  0.60644003  0.01910548  0.71249737     0.14900
H1018       H  0.60637810  0.02021904  0.78776578     0.14900
H1019       H  0.89303407  0.02043281  0.71294782     0.14900
H1020       H  0.89290972  0.02018197  0.78825376     0.14900
H1021       H  0.74992919  0.01644683  0.71859884     0.28100
H1022       H  0.74993361  0.01807900  0.78262070     0.28100
N1023       N  0.74988938  0.19334699  0.00040467    -0.34600
N1024       N  0.69066025  0.25193776  0.00086761    -0.55200
N1025       N  0.74967440  0.31081779  0.99712851    -0.34600
N1026       N  0.80889506  0.25206550  0.00085682    -0.55200
C1027       C  0.71868175  0.17132658  0.00626736     0.29000
C1028       C  0.78103832  0.17151963  0.00731159     0.29000
C1029       C  0.71850158  0.33290457  0.00306229     0.29000
C1030       C  0.78086334  0.33293095  0.00287578     0.29000
C1031       C  0.66800138  0.22088748  0.99729788     0.37600
C1032       C  0.66784137  0.28282111  0.99692763     0.37600
C1033       C  0.83157230  0.22102012  0.99741276     0.37600
C1034       C  0.83145935  0.28293516  0.99570875     0.37600
C1035       C  0.73016766  0.13491919  0.01676307    -0.19900
C1036       C  0.76942282  0.13505907  0.01750612    -0.19900
C1037       C  0.73006937  0.36975033  0.01182165    -0.19900
C1038       C  0.76930569  0.36975801  0.01173527    -0.19900
C1039       C  0.63045321  0.23215070  0.99186458    -0.21000
C1040       C  0.63033994  0.27131237  0.99170491    -0.21000
C1041       C  0.86887734  0.23226495  0.99048360    -0.21000
C1042       C  0.86880494  0.27143567  0.98940458    -0.21000
C1043       C  0.68021914  0.18253005  0.00065517    -0.16300
C1044       C  0.81958412  0.18278252  0.00244018    -0.16300
C1045       C  0.81944406  0.32134031  0.99904718    -0.16300
C1046       C  0.67991294  0.32126186  0.99964579    -0.16300
H1047       H  0.71214216  0.11063461  0.02301035     0.16600
H1048       H  0.78736375  0.11085813  0.02431763     0.16600
H1049       H  0.71211634  0.39417107  0.01776124     0.16600
H1050       H  0.78726630  0.39419741  0.01755416     0.16600
H1051       H  0.60562172  0.21406622  0.98870694     0.14900
H1052       H  0.60542361  0.28923768  0.98829319     0.14900
H1053       H  0.89366175  0.21417626  0.98696944     0.14900
H1054       H  0.89352617  0.28938823  0.98490147     0.14900
H1055       H  0.74994425  0.22022098  0.98813873     0.28100
H1056       H  0.74966615  0.28336299  0.98620418     0.28100
C1057       C  0.84873849  0.35073115  0.99985308    -0.11300
C1058       C  0.87321699  0.37501246  0.00046563    -0.12900
C1059       C  0.84869088  0.15316792  0.00285012    -0.11300
C1060       C  0.87294559  0.12863762  0.00259190    -0.12900
C1061       C  0.62636001  0.37514776  0.00011956    -0.11300
C1062       C  0.65069714  0.35073211  0.99994059    -0.12900
C1063       C  0.62672905  0.12854553  0.99809620    -0.11300
C1064       C  0.65124505  0.15280506  0.99917480    -0.12900
C1065       C  0.87337059  0.49947791  0.87363247    -0.11300
C1066       C  0.84847545  0.00184299  0.84923045    -0.12900
C1067       C  0.65094879  0.00412611  0.84907406    -0.11300
C1068       C  0.62765594  0.50319341  0.87396690    -0.12900
C1069       C  0.65101942  0.00065482  0.65184265    -0.11300
C1070       C  0.62666362  0.99976313  0.62747563    -0.12900
C1071       C  0.84898745  0.00203731  0.65174409    -0.11300
C1072       C  0.87349705  0.00144173  0.62744812    -0.12900
C1073       C  0.50131013  0.12773138  0.87289076    -0.11300
C1074       C  0.50172661  0.15233006  0.84875291    -0.12900
C1075       C  0.49962054  0.37445958  0.87378233    -0.11300
C1076       C  0.49944043  0.34991787  0.84952459    -0.12900
C1077       C  0.50142465  0.37435070  0.62750644    -0.11300
C1078       C  0.50124220  0.35007680  0.65203733    -0.12900
C1079       C  0.50030139  0.12912790  0.62671646    -0.11300
C1080       C  0.50044779  0.15316629  0.65145689    -0.12900
N1081       N  0.49566902  0.75182381  0.30869715    -0.34600
N1082       N  0.49880653  0.69275301  0.25056444    -0.55200
N1083       N  0.49941420  0.75181146  0.19229764    -0.34600
N1084       N  0.49757905  0.81085671  0.25041607    -0.55200
C1085       C  0.50394166  0.72079417  0.33022511     0.29000
C1086       C  0.50331231  0.78308200  0.33011286     0.29000
C1087       C  0.50722483  0.72064214  0.17081931     0.29000
C1088       C  0.50691609  0.78302839  0.17076576     0.29000
C1089       C  0.49203313  0.67061288  0.28139861     0.37600
C1090       C  0.49346159  0.67053141  0.21951359     0.37600
C1091       C  0.49043293  0.83294979  0.28117929     0.37600
C1092       C  0.49219938  0.83299054  0.21932987     0.37600
C1093       C  0.51678737  0.73249675  0.36579402    -0.19900
C1094       C  0.51640141  0.77176144  0.36572205    -0.19900
C1095       C  0.51991420  0.73220297  0.13512788    -0.19900
C1096       C  0.51971470  0.77152170  0.13509053    -0.19900
C1097       C  0.48256858  0.63392811  0.26994004    -0.21000
C1098       C  0.48349515  0.63386376  0.23068353    -0.21000
C1099       C  0.48056347  0.86951162  0.26964085    -0.21000
C1100       C  0.48169536  0.86954710  0.23039175    -0.21000
C1101       C  0.49773141  0.68234317  0.31953457    -0.16300
C1102       C  0.49630514  0.82135842  0.31931572    -0.16300
C1103       C  0.49965977  0.82136996  0.18144562    -0.16300
C1104       C  0.50012330  0.68228479  0.18149580    -0.16300
H1105       H  0.52509519  0.71460223  0.38956222     0.16600
H1106       H  0.52435771  0.78990005  0.38942882     0.16600
H1107       H  0.52769892  0.71419018  0.11126548     0.16600
H1108       H  0.52729517  0.78955396  0.11118041     0.16600
H1109       H  0.47632663  0.60962411  0.28796248     0.14900
H1110       H  0.47806425  0.60948082  0.21250310     0.14900
H1111       H  0.47401655  0.89378133  0.28760631     0.14900
H1112       H  0.47612174  0.89385511  0.21215252     0.14900
H1113       H  0.48127468  0.75164457  0.28278276     0.28100
H1114       H  0.48514436  0.75172912  0.21822738     0.28100
O1115       O  0.49922027  0.61130588  0.06308953    -0.78100
O1116       O  0.50137465  0.89279133  0.06375581    -0.79700
O1117       O  0.93767988  0.50404776  0.10983912    -0.76700
O1118       O  0.56229749  0.50145490  0.10960435    -0.75100
O1119       O  0.60929644  0.00158272  0.06266208    -0.76900
O1120       O  0.89074094  0.00166496  0.06304037    -0.77800
O1121       O  0.50077153  0.93921055  0.10988193    -0.79200
O1122       O  0.49880551  0.56501598  0.10936101    -0.79400
Eu1123     Eu  0.50025004  0.00185464  0.07798285     2.39200
O1124       O  0.53881205  0.96289079  0.03910692    -0.87000
O1125       O  0.96194963  0.54074783  0.03859127    -0.90600
C1126       C  0.49897933  0.60010708  0.09818500     1.04100
C1127       C  0.50124698  0.90409301  0.09879602     1.03900
C1128       C  0.90262217  0.50431941  0.09861599     1.03900
C1129       C  0.59740755  0.50084329  0.09847917     1.01800
H1130       H  0.94538515  0.94685002  0.05538207     0.31500
O1131       O  0.96116477  0.96282661  0.03934758    -0.99300
H1132       H  0.55418766  0.55696114  0.05511052     0.31500
O1133       O  0.53823685  0.54105803  0.03915836    -1.01900
O1134       O  0.49949043  0.89215574  0.43780715    -0.79200
O1135       O  0.50018142  0.61124518  0.43803252    -0.78600
O1136       O  0.89080223  0.93873548  0.49953577    -0.77100
O1137       O  0.60971046  0.93904088  0.50055654    -0.80400
O1138       O  0.60884912  0.56428301  0.49995104    -0.78300
O1139       O  0.89190786  0.56457304  0.50175786    -0.76900
O1140       O  0.93757914  0.00033644  0.39090655    -0.78500
O1141       O  0.56298514  0.00126731  0.39130586    -0.80400
O1142       O  0.89134746  0.99994551  0.43719554    -0.77100
O1143       O  0.60924140  0.00181270  0.43757610    -0.79800
O1144       O  0.93710746  0.89254001  0.49970887    -0.75500
O1145       O  0.93820555  0.61079201  0.50194305    -0.75600
O1146       O  0.56266391  0.61062319  0.50097435    -0.75200
O1147       O  0.56331217  0.89294724  0.50106226    -0.78700
O1148       O  0.49915266  0.93836324  0.39148139    -0.78100
O1149       O  0.50075111  0.56508291  0.39165886    -0.76400
Eu1150     Eu  0.50021748  0.92401716  0.50051560     2.39800
Eu1151     Eu  0.49983054  0.57943094  0.50083672     2.39600
Eu1152     Eu  0.92265734  0.00137683  0.50019120     2.38400
Eu1153     Eu  0.57770711  0.00157201  0.50036576     2.39900
Eu1154     Eu  0.50009536  0.00130735  0.42262425     2.39800
O1155       O  0.53871584  0.54074592  0.46201885    -0.90900
O1156       O  0.96162963  0.96292253  0.46136429    -0.89800
C1157       C  0.49894843  0.90331216  0.40270168     1.04300
C1158       C  0.50045810  0.60015000  0.40289254     1.03000
C1159       C  0.90199122  0.90365735  0.49943333     1.02400
C1160       C  0.59841805  0.90399925  0.50079108     1.04400
C1161       C  0.59767525  0.59932032  0.50040960     1.03300
C1162       C  0.90313079  0.59961487  0.50233656     1.02200
C1163       C  0.90251733  0.99980499  0.40209103     1.02200
C1164       C  0.59805046  0.00163383  0.40248918     1.04900
H1165       H  0.94559918  0.55644449  0.44563064     0.32200
O1166       O  0.96158477  0.54045872  0.46145955    -1.03000
H1167       H  0.55492031  0.94660686  0.44563649     0.34300
O1168       O  0.53901170  0.96261066  0.46152007    -1.05600
N1169       N  0.75011553  0.49844505  0.19159713    -0.34600
N1170       N  0.69136686  0.49879127  0.25043169    -0.55200
N1171       N  0.75019559  0.49792655  0.30922773    -0.34600
N1172       N  0.80892609  0.50070261  0.25035999    -0.55200
C1173       C  0.71879327  0.50519758  0.16999192     0.29000
C1174       C  0.78111215  0.50687782  0.17009778     0.29000
C1175       C  0.71904111  0.50556293  0.33076863     0.29000
C1176       C  0.78133282  0.50591529  0.33066336     0.29000
C1177       C  0.66896600  0.49307532  0.21949528     0.37600
C1178       C  0.66898105  0.49367743  0.28147788     0.37600
C1179       C  0.83122768  0.49531820  0.21932097     0.37600
C1180       C  0.83123600  0.49450796  0.28123911     0.37600
C1181       C  0.73005858  0.51757345  0.13408532    -0.19900
C1182       C  0.76933473  0.51871162  0.13417882    -0.19900
C1183       C  0.73055486  0.51805557  0.36656324    -0.19900
C1184       C  0.76983568  0.51828724  0.36649034    -0.19900
C1185       C  0.63209098  0.48448047  0.23097668    -0.21000
C1186       C  0.63208455  0.48493452  0.27019638    -0.21000
C1187       C  0.86795568  0.48580683  0.23054341    -0.21000
C1188       C  0.86795748  0.48528258  0.26976477    -0.21000
C1189       C  0.68048688  0.49869729  0.18118209    -0.16300
C1190       C  0.81963586  0.50177502  0.18121068    -0.16300
C1191       C  0.81971037  0.50016876  0.31948722    -0.16300
C1192       C  0.68064107  0.49964020  0.31968459    -0.16300
H1193       H  0.71188931  0.52481825  0.11017489     0.16600
H1194       H  0.78717885  0.52690266  0.11033001     0.16600
H1195       H  0.71254154  0.52599269  0.39037197     0.16600
H1196       H  0.78786427  0.52641609  0.39022515     0.16600
H1197       H  0.60755473  0.47918191  0.21298262     0.14900
H1198       H  0.60755934  0.48000938  0.28830851     0.14900
H1199       H  0.89233686  0.48034673  0.21238806     0.14900
H1200       H  0.89235554  0.47940125  0.28776775     0.14900
H1201       H  0.75040657  0.48486263  0.21791343     0.28100
H1202       H  0.75026806  0.48407355  0.28303547     0.28100
N1203       N  0.75007062  0.69214615  0.50045696    -0.34600
N1204       N  0.69077891  0.75108490  0.49972346    -0.55200
N1205       N  0.74984753  0.80987672  0.49566539    -0.34600
N1206       N  0.80903280  0.75115965  0.50026026    -0.55200
C1207       C  0.71885689  0.66970670  0.50391864     0.29000
C1208       C  0.78126614  0.66974203  0.50457100     0.29000
C1209       C  0.71868294  0.83183756  0.50205742     0.29000
C1210       C  0.78097668  0.83191423  0.50198162     0.29000
C1211       C  0.66811225  0.72000273  0.49682653     0.37600
C1212       C  0.66803486  0.78193561  0.49529887     0.37600
C1213       C  0.83184362  0.72011752  0.49774511     0.37600
C1214       C  0.83166651  0.78204248  0.49545383     0.37600
C1215       C  0.73040356  0.63226169  0.50988676    -0.19900
C1216       C  0.76966945  0.63228965  0.51030557    -0.19900
C1217       C  0.73020416  0.86848661  0.51164849    -0.19900
C1218       C  0.76940207  0.86853293  0.51159070    -0.19900
C1219       C  0.63058578  0.73126195  0.49102313    -0.21000
C1220       C  0.63055534  0.77042681  0.49002315    -0.21000
C1221       C  0.86929269  0.73144980  0.49177493    -0.21000
C1222       C  0.86916254  0.77058286  0.49026867    -0.21000
C1223       C  0.68032303  0.68162186  0.50038915    -0.16300
C1224       C  0.81985483  0.68170802  0.50177103    -0.16300
C1225       C  0.81955125  0.82046007  0.49815821    -0.16300
C1226       C  0.68012377  0.82032594  0.49834109    -0.16300
H1227       H  0.71244993  0.60735206  0.51323012     0.16600
H1228       H  0.78759650  0.60740865  0.51399195     0.16600
H1229       H  0.71224216  0.89275661  0.51814661     0.16600
H1230       H  0.78733345  0.89283156  0.51804794     0.16600
H1231       H  0.60574081  0.71317686  0.48794847     0.14900
H1232       H  0.60570527  0.78836117  0.48619679     0.14900
H1233       H  0.89419986  0.71342648  0.48887674     0.14900
H1234       H  0.89395037  0.78854277  0.48621787     0.14900
H1235       H  0.75006247  0.72059158  0.49296441     0.28100
H1236       H  0.74988223  0.78275745  0.48386988     0.28100
C1237       C  0.84869761  0.85004424  0.49859720    -0.11300
C1238       C  0.87296619  0.87456559  0.49900804    -0.12900
C1239       C  0.84930453  0.65251015  0.50285595    -0.11300
C1240       C  0.87404582  0.62851928  0.50307525    -0.12900
C1241       C  0.62720843  0.87477047  0.50023748    -0.11300
C1242       C  0.65106076  0.84990534  0.49932490    -0.12900
C1243       C  0.62668665  0.62812572  0.50045070    -0.11300
C1244       C  0.65114045  0.65230339  0.50049899    -0.12900
C1245       C  0.87350124  0.99968688  0.37303723    -0.11300
C1246       C  0.84900625  0.50099718  0.34885806    -0.12900
C1247       C  0.65140130  0.50070298  0.34915439    -0.11300
C1248       C  0.62701828  0.00199079  0.37343058    -0.12900
C1249       C  0.65108659  0.49935503  0.15180370    -0.11300
C1250       C  0.62652719  0.50004696  0.12753325    -0.12900
C1251       C  0.84898954  0.50372466  0.15189551    -0.11300
C1252       C  0.87350255  0.50461991  0.12761897    -0.12900
C1253       C  0.49984410  0.62918334  0.37381736    -0.11300
C1254       C  0.49880738  0.65329887  0.34916080    -0.12900
C1255       C  0.49786071  0.87439501  0.37361119    -0.11300
C1256       C  0.49689363  0.85040999  0.34887286    -0.12900
C1257       C  0.50120571  0.87508849  0.12781450    -0.11300
C1258       C  0.50064898  0.85055035  0.15201775    -0.12900
C1259       C  0.49930572  0.62911497  0.12724556    -0.11300
C1260       C  0.49986298  0.65335569  0.15177220    -0.12900
N1261       N  0.50262267  0.75174496  0.80852910    -0.34600
N1262       N  0.50069706  0.69326742  0.74981965    -0.55200
N1263       N  0.49983216  0.75236683  0.69157986    -0.34600
N1264       N  0.49999831  0.81095264  0.75038541    -0.55200
C1265       C  0.49401425  0.72045620  0.82951434     0.29000
C1266       C  0.49373701  0.78267932  0.82990230     0.29000
C1267       C  0.49270018  0.72128813  0.66974975     0.29000
C1268       C  0.49289722  0.78362547  0.66998426     0.29000
C1269       C  0.50719583  0.67087112  0.78052898     0.37600
C1270       C  0.50574114  0.67111658  0.71867731     0.37600
C1271       C  0.50569749  0.83315934  0.78140021     0.37600
C1272       C  0.50461510  0.83360524  0.71952039     0.37600
C1273       C  0.47969742  0.73164812  0.86468211    -0.19900
C1274       C  0.47957452  0.77091201  0.86494959    -0.19900
C1275       C  0.48137311  0.73297470  0.63362695    -0.19900
C1276       C  0.48154540  0.77226995  0.63375702    -0.19900
C1277       C  0.51643037  0.63419958  0.76889098    -0.21000
C1278       C  0.51547324  0.63433924  0.72966981    -0.21000
C1279       C  0.51370833  0.87027243  0.77023520    -0.21000
C1280       C  0.51294973  0.87057696  0.73101262    -0.21000
C1281       C  0.50102493  0.68223604  0.81867573    -0.16300
C1282       C  0.50012902  0.82111311  0.81944792    -0.16300
C1283       C  0.49890019  0.82195427  0.68130856    -0.16300
C1284       C  0.49863185  0.68283462  0.68074997    -0.16300
H1285       H  0.47055196  0.71341375  0.88787886     0.16600
H1286       H  0.47028673  0.78876788  0.88838600     0.16600
H1287       H  0.47435605  0.71507704  0.60943974     0.16600
H1288       H  0.47461029  0.79038849  0.60970953     0.16600
H1289       H  0.52226191  0.60969362  0.78677243     0.14900
H1290       H  0.52058444  0.60996671  0.71138514     0.14900
H1291       H  0.51870185  0.89473849  0.78842843     0.14900
H1292       H  0.51737808  0.89532373  0.71305891     0.14900
H1293       H  0.51788799  0.75199829  0.78309581     0.28100
H1294       H  0.51286409  0.75227509  0.71813586     0.28100
O1295       O  0.49784340  0.61075479  0.56363504    -0.78100
O1296       O  0.50032904  0.89274609  0.56333993    -0.79700
O1297       O  0.93763940  0.50234444  0.60935861    -0.76700
O1298       O  0.56389633  0.50135717  0.60918769    -0.75100
O1299       O  0.60892733  0.00058426  0.56336090    -0.76900
O1300       O  0.89141756  0.00131302  0.56328280    -0.77800
O1301       O  0.49935017  0.93923591  0.60939783    -0.79200
O1302       O  0.49801409  0.56454779  0.60999819    -0.79400
Eu1303     Eu  0.49999546  0.00200431  0.57789188     2.39200
O1304       O  0.53883169  0.96301287  0.53928379    -0.87000
O1305       O  0.96224665  0.54021420  0.53875869    -0.90600
C1306       C  0.49730420  0.59961431  0.59871451     1.04100
C1307       C  0.49970352  0.90412609  0.59834399     1.03900
C1308       C  0.90254670  0.50253603  0.59818972     1.03900
C1309       C  0.59896131  0.50099348  0.59788639     1.01800
H1310       H  0.94565992  0.94663005  0.55498876     0.31500
O1311       O  0.96149492  0.96261865  0.53902379    -0.99300
H1312       H  0.55480506  0.55658570  0.55560198     0.31500
O1313       O  0.53892253  0.54063455  0.53962493    -1.01900
O1314       O  0.49909290  0.89183732  0.93806014    -0.79200
O1315       O  0.49938944  0.61131492  0.93709837    -0.78600
O1316       O  0.89086139  0.93894721  0.00054153    -0.77100
O1317       O  0.60887469  0.93875433  0.00022983    -0.80400
O1318       O  0.60869622  0.56453845  0.99981366    -0.78300
O1319       O  0.89131750  0.56452717  0.00082987    -0.76900
O1320       O  0.93694060  0.00128330  0.89155445    -0.78500
O1321       O  0.56236736  0.00277816  0.89130552    -0.80400
O1322       O  0.89065884  0.00149378  0.93779041    -0.77100
O1323       O  0.60881311  0.00274332  0.93738304    -0.79800
O1324       O  0.93707226  0.89264597  0.00084821    -0.75500
O1325       O  0.93757627  0.61078432  0.00046839    -0.75600
O1326       O  0.56257994  0.61094392  0.99905589    -0.75200
O1327       O  0.56274306  0.89238476  0.00098461    -0.78700
O1328       O  0.49917521  0.93798842  0.89166043    -0.78100
O1329       O  0.50028925  0.56496165  0.89088692    -0.76400
Eu1330     Eu  0.49994859  0.92370823  0.00069375     2.39800
Eu1331     Eu  0.49942589  0.57988924  0.00014524     2.39600
Eu1332     Eu  0.92238170  0.00169496  0.00045823     2.38400
Eu1333     Eu  0.57735963  0.00160170  0.00003813     2.39900
Eu1334     Eu  0.49939507  0.00104186  0.92270804     2.39800
O1335       O  0.53827752  0.54081164  0.96170664    -0.90900
O1336       O  0.96108656  0.96287154  0.96158358    -0.89800
C1337       C  0.49898998  0.90294323  0.90294595     1.04300
C1338       C  0.49990415  0.60006566  0.90200182     1.03000
C1339       C  0.90203410  0.90387744  0.00073136     1.02400
C1340       C  0.59776348  0.90365350  0.00075234     1.04400
C1341       C  0.59762476  0.59960770  0.99915475     1.03300
C1342       C  0.90253906  0.59956720  0.00083916     1.02200
C1343       C  0.90184741  0.00134075  0.90271045     1.02200
C1344       C  0.59749367  0.00319649  0.90237065     1.04900
H1345       H  0.94539512  0.55656956  0.94502477     0.32200
O1346       O  0.96132112  0.54071429  0.96105352    -1.03000
H1347       H  0.55449500  0.94653036  0.94542946     0.34300
O1348       O  0.53857539  0.96241751  0.96142033    -1.05600
N1349       N  0.75071491  0.50139594  0.69196314    -0.34600
N1350       N  0.69152296  0.49838588  0.75053714    -0.55200
N1351       N  0.75045375  0.50081156  0.80909928    -0.34600
N1352       N  0.80956104  0.50012664  0.75050907    -0.55200
C1353       C  0.71973952  0.49401273  0.67008790     0.29000
C1354       C  0.78201103  0.49558894  0.67007151     0.29000
C1355       C  0.71925436  0.49370105  0.83074519     0.29000
C1356       C  0.78154557  0.49294571  0.83064246     0.29000
C1357       C  0.66936501  0.50423199  0.71945516     0.37600
C1358       C  0.66931079  0.50513914  0.78140286     0.37600
C1359       C  0.83197323  0.50637010  0.71972308     0.37600
C1360       C  0.83186608  0.50491948  0.78161859     0.37600
C1361       C  0.73151282  0.48364695  0.63371323    -0.19900
C1362       C  0.77075816  0.48470019  0.63368661    -0.19900
C1363       C  0.73064556  0.48136804  0.86660873    -0.19900
C1364       C  0.76993024  0.48082044  0.86652643    -0.19900
C1365       C  0.63271096  0.51403671  0.73065259    -0.21000
C1366       C  0.63269849  0.51469341  0.76987010    -0.21000
C1367       C  0.86886524  0.51473907  0.73133385    -0.21000
C1368       C  0.86881153  0.51377644  0.77053414    -0.21000
C1369       C  0.68125238  0.49922134  0.68118701    -0.16300
C1370       C  0.82027487  0.50194212  0.68135265    -0.16300
C1371       C  0.81996146  0.49901083  0.81971136    -0.16300
C1372       C  0.68099288  0.50053089  0.81977721    -0.16300
H1373       H  0.71367986  0.47663744  0.60948128     0.16600
H1374       H  0.78891102  0.47856129  0.60945680     0.16600
H1375       H  0.71254499  0.47391485  0.89050477     0.16600
H1376       H  0.78789298  0.47291457  0.89038601     0.16600
H1377       H  0.60849969  0.52012900  0.71246989     0.14900
H1378       H  0.60844496  0.52125817  0.78782690     0.14900
H1379       H  0.89338888  0.52041826  0.71344014     0.14900
H1380       H  0.89328454  0.51860703  0.78874991     0.14900
H1381       H  0.75039567  0.51400997  0.71873169     0.28100
H1382       H  0.75051616  0.51470728  0.78294707     0.28100
N1383       N  0.75032096  0.69255006  0.99687057    -0.34600
N1384       N  0.69092542  0.75126162  0.00169485    -0.55200
N1385       N  0.74996319  0.81026081  0.99974730    -0.34600
N1386       N  0.80938941  0.75152771  0.99981113    -0.55200
C1387       C  0.71921562  0.67026808  0.00226267     0.29000
C1388       C  0.78155626  0.67046243  0.00238525     0.29000
C1389       C  0.71877257  0.83271136  0.00360058     0.29000
C1390       C  0.78115077  0.83283780  0.00269287     0.29000
C1391       C  0.66827028  0.72031851  0.99752240     0.37600
C1392       C  0.66802226  0.78223870  0.99919689     0.37600
C1393       C  0.83225272  0.72065619  0.99644876     0.37600
C1394       C  0.83208303  0.78259299  0.99699820     0.37600
C1395       C  0.73086471  0.63328712  0.01030551    -0.19900
C1396       C  0.77008515  0.63341597  0.01043746    -0.19900
C1397       C  0.73033562  0.87027770  0.00849057    -0.19900
C1398       C  0.76955476  0.87035918  0.00790984    -0.19900
C1399       C  0.63061521  0.73168653  0.99315757    -0.21000
C1400       C  0.63044872  0.77081861  0.99429739    -0.21000
C1401       C  0.86985120  0.73216149  0.99191554    -0.21000
C1402       C  0.86974293  0.77132702  0.99225993    -0.21000
C1403       C  0.68060477  0.68190188  0.99911930    -0.16300
C1404       C  0.82012701  0.68226054  0.99932245    -0.16300
C1405       C  0.81975355  0.82098576  0.99981522    -0.16300
C1406       C  0.68017552  0.82072649  0.00150104    -0.16300
H1407       H  0.71297538  0.60870045  0.01570554     0.16600
H1408       H  0.78808595  0.60892137  0.01591120     0.16600
H1409       H  0.71241054  0.89519465  0.01191089     0.16600
H1410       H  0.78745392  0.89535750  0.01080687     0.16600
H1411       H  0.60578853  0.71368685  0.98951339     0.14900
H1412       H  0.60549034  0.78879026  0.99150936     0.14900
H1413       H  0.89482840  0.71423952  0.98894155     0.14900
H1414       H  0.89462227  0.78941212  0.98949695     0.14900
H1415       H  0.75018556  0.72010614  0.98630922     0.28100
H1416       H  0.74993530  0.78169025  0.99284497     0.28100
C1417       C  0.84886849  0.85044075  0.00033369    -0.11300
C1418       C  0.87307926  0.87490990  0.00070404    -0.12900
C1419       C  0.84933453  0.65291797  0.00032912    -0.11300
C1420       C  0.87360874  0.62852489  0.00087920    -0.12900
C1421       C  0.62675953  0.87467100  0.00110958    -0.11300
C1422       C  0.65097046  0.85016281  0.00142608    -0.12900
C1423       C  0.62683103  0.62835961  0.99874511    -0.11300
C1424       C  0.65146958  0.65242682  0.99879764    -0.12900
C1425       C  0.87281982  0.00146887  0.87366315    -0.11300
C1426       C  0.84895262  0.49892726  0.84932831    -0.12900
C1427       C  0.65200940  0.50211354  0.84951087    -0.11300
C1428       C  0.62646728  0.00393414  0.87333586    -0.12900
C1429       C  0.65228828  0.49968201  0.65144613    -0.11300
C1430       C  0.62809746  0.50034709  0.62685244    -0.12900
C1431       C  0.84939065  0.50263651  0.65182486    -0.11300
C1432       C  0.87358335  0.50280467  0.62726533    -0.12900
C1433       C  0.50004754  0.62897165  0.87282538    -0.11300
C1434       C  0.50038939  0.65306915  0.84815458    -0.12900
C1435       C  0.49895287  0.87392995  0.87394835    -0.11300
C1436       C  0.49932847  0.84988126  0.84926583    -0.12900
C1437       C  0.49917299  0.87531020  0.62744038    -0.11300
C1438       C  0.49880561  0.85110024  0.65191437    -0.12900
C1439       C  0.49642494  0.62878913  0.62752851    -0.11300
C1440       C  0.49692665  0.65353765  0.65149918    -0.12900
loop_ 
_geom_bond_atom_site_label_1 
_geom_bond_atom_site_label_2 
_geom_bond_distance 
_geom_bond_site_symmetry_2 
_ccdc_geom_bond_type 
N1            C6   1.353   1_455  A
N1            C5   1.353   1_455  A
N1           H33   1.039       .  S
N2            C9   1.352   1_655  A
N2           C10   1.352   1_655  A
N3            C8   1.355   1_455  A
N3            C7   1.354   1_455  A
N3           H34   1.038       .  S
N4           C11   1.352       .  A
N4           C12   1.352       .  A
C5           C13   1.388       .  A
C5           C21   1.413       .  A
C6           C22   1.413       .  A
C6           C14   1.388       .  A
C7           C15   1.388       .  A
C7           C24   1.416       .  A
C8           C23   1.417   1_655  A
C8           C16   1.387       .  A
C9           C21   1.412   1_455  A
C9           C17   1.387       .  A
C10          C24   1.414   1_455  A
C10          C18   1.387       .  A
C11          C19   1.387       .  A
C11          C22   1.412   1_455  A
C12          C20   1.387       .  A
C12          C23   1.414       .  A
C13          C14   1.376       .  A
C13          H25   1.083       .  S
C14          H26   1.083       .  S
C15          C16   1.377       .  A
C15          H27   1.082       .  S
C16          H28   1.082       .  S
C17          C18   1.374       .  A
C17          H29   1.082       .  S
C18          H30   1.082       .  S
C19          C20   1.373       .  A
C19          H31   1.082       .  S
C20          H32   1.082       .  S
C21         C174   1.451       .  S
C22         C176   1.451       .  S
C23         C178   1.456       .  S
C24         C180   1.455       .  S
O35          C46   1.291       .  A
O35        Eu251   2.468       .  S
O36          C47   1.290       .  A
O36        Eu250   2.465       .  S
O37          C48   1.290       .  A
O37       Eu1123   2.463       .  S
O38          C49   1.290       .  A
O38        Eu403   2.459       .  S
O39         C409   1.291       .  A
O39        Eu253   2.464       .  S
O40         C408   1.291       .  A
O40        Eu252   2.465       .  S
O41          C47   1.291       .  A
O41         Eu43   2.469       .  S
O42          C46   1.290       .  A
O42        Eu403   2.463   1_655  S
Eu43       O1117   2.463   1_455  S
Eu43        O398   2.456       .  S
Eu43        O402   2.461   1_455  S
Eu43         O44   2.356       .  S
Eu43        O413   2.360       .  S
Eu43       O1125   2.352   1_455  S
Eu43        O771   2.356   1_455  S
O44        Eu253   2.356       .  S
O44        Eu250   2.355       .  S
O45       Eu1123   2.355       .  S
O45        Eu971   2.354       .  S
O45        Eu612   2.356       .  S
C46         C179   1.441       .  S
C47         C177   1.441       .  S
C48         C172   1.435       .  S
C48         O400   1.289       .  A
C49         C170   1.436       .  S
C49         O399   1.290       .  A
H50          O51   0.967       .  S
O51        Eu763   2.359       .  S
O51        Eu252   2.356       .  S
O51        Eu970   2.355       .  S
H52          O53   0.967       .  S
O53        Eu403   2.357       .  S
O53        Eu251   2.357   1_455  S
O53        Eu613   2.358       .  S
O54          C77   1.290       .  A
O54         Eu70   2.459   1_655  S
O55          C78   1.289       .  A
O55         Eu71   2.455       .  S
O56          C79   1.290       .  A
O56         Eu72   2.461       .  S
O57          C80   1.289       .  A
O57         Eu73   2.459       .  S
O58          C81   1.290       .  A
O58        Eu433   2.462       .  S
O59          C82   1.291       .  A
O59        Eu432   2.466       .  S
O60          C83   1.290       .  A
O60        Eu794   2.460       .  S
O61          C84   1.289       .  A
O61         Eu74   2.457       .  S
O62          C83   1.290       .  A
O62         Eu72   2.460       .  S
O63          C84   1.288       .  A
O63         Eu73   2.452       .  S
O64          C79   1.290       .  A
O64        Eu790   2.461       .  S
O65          C82   1.291       .  A
O65        Eu791   2.465       .  S
O66          C81   1.291       .  A
O66         Eu71   2.467       .  S
O67          C80   1.290       .  A
O67         Eu70   2.460       .  S
O68          C77   1.290       .  A
O68         Eu74   2.462   1_655  S
O69          C78   1.290       .  A
O69        Eu434   2.465       .  S
Eu70        O216   2.458       .  S
Eu70        O784   2.463   1_455  S
Eu70         O88   2.358       .  S
Eu70        O224   2.352       .  S
Eu70        O951   2.357   1_455  S
Eu70        O796   2.354   1_455  S
Eu71        O215   2.458       .  S
Eu71        O785   2.466   1_455  S
Eu71         O75   2.352       .  S
Eu71        O945   2.354   1_455  S
Eu71        O233   2.357       .  S
Eu71        O806   2.359   1_455  S
Eu72        O220   2.457       .  S
Eu72        O419   2.460       .  S
Eu72         O76   2.354       .  S
Eu72        O585   2.351       .  S
Eu72        O231   2.357       .  S
Eu72        O446   2.357       .  S
Eu73        O219   2.459       .  S
Eu73        O418   2.460       .  S
Eu73         O88   2.359       .  S
Eu73        O224   2.350       .  S
Eu73        O593   2.356       .  S
Eu73        O435   2.353       .  S
Eu74        O780   2.460   1_455  S
Eu74        O429   2.463   1_455  S
Eu74         O88   2.360       .  S
Eu74        O435   2.353       .  S
Eu74       O1166   2.355   1_455  S
Eu74        O796   2.353   1_455  S
O75        Eu433   2.353       .  S
O75        Eu434   2.352       .  S
O76        Eu790   2.356       .  S
O76        Eu794   2.357       .  S
C77         C175   1.436       .  S
C78         C173   1.436       .  S
C79         C158   1.437       .  S
C80         C161   1.435       .  S
C81         C163   1.439       .  S
C82         C160   1.440       .  S
C83         C165   1.435       .  S
C84         C168   1.431       .  S
H85          O86   0.967       .  S
O86        Eu791   2.357       .  S
O86        Eu432   2.358       .  S
O86       Eu1154   2.358       .  S
H87          O88   0.967       .  S
N89          C94   1.354   1_565  A
N89          C93   1.354   1_565  A
N89         H121   1.035       .  S
N90          C97   1.352   1_545  A
N90          C98   1.352   1_545  A
N91          C96   1.354   1_565  A
N91          C95   1.354   1_565  A
N91         H122   1.035       .  S
N92          C99   1.353       .  A
N92         C100   1.353   1_545  A
C93         C101   1.388       .  A
C93         C109   1.417       .  A
C94         C110   1.416       .  A
C94         C102   1.388       .  A
C95         C103   1.388       .  A
C95         C112   1.416       .  A
C96         C111   1.415       .  A
C96         C104   1.387       .  A
C97         C109   1.414   1_565  A
C97         C105   1.387       .  A
C98         C112   1.414   1_565  A
C98         C106   1.387       .  A
C99         C107   1.387   1_545  A
C99         C110   1.414       .  A
C100        C108   1.387       .  A
C100        C111   1.414   1_565  A
C101        C102   1.375       .  A
C101        H113   1.082       .  S
C102        H114   1.082       .  S
C103        C104   1.374       .  A
C103        H115   1.082       .  S
C104        H116   1.082       .  S
C105        C106   1.371       .  A
C105        H117   1.082       .  S
C106        H118   1.082       .  S
C107        C108   1.371       .  A
C107        H119   1.082       .  S
C108        H120   1.082       .  S
C109        C169   1.453       .  S
C110        C171   1.452       .  S
C111        C166   1.452       .  S
C112        C167   1.452       .  S
N123        C128   1.354       .  A
N123        C127   1.354       .  A
N123        H155   1.038       .  S
N124        C131   1.353       .  A
N124        C132   1.352       .  A
N125        C130   1.353       .  A
N125        C129   1.353       .  A
N125        H156   1.035       .  S
N126        C133   1.352       .  A
N126        C134   1.352       .  A
C127        C135   1.387       .  A
C127        C143   1.414       .  A
C128        C144   1.416       .  A
C128        C136   1.388       .  A
C129        C137   1.389       .  A
C129        C146   1.416       .  A
C130        C145   1.417       .  A
C130        C138   1.388       .  A
C131        C143   1.413       .  A
C131        C139   1.386       .  A
C132        C146   1.414       .  A
C132        C140   1.387       .  A
C133        C141   1.387       .  A
C133        C144   1.414       .  A
C134        C142   1.387       .  A
C134        C145   1.415       .  A
C135        C136   1.376       .  A
C135        H147   1.082       .  S
C136        H148   1.082       .  S
C137        C138   1.377       .  A
C137        H149   1.083       .  S
C138        H150   1.083       .  S
C139        C140   1.374       .  A
C139        H151   1.082       .  S
C140        H152   1.082       .  S
C141        C142   1.374       .  A
C141        H153   1.082       .  S
C142        H154   1.082       .  S
C143        C164   1.454       .  S
C144        C159   1.455       .  S
C145        C157   1.453       .  S
C146        C162   1.451       .  S
C157        C158   1.208       .  T
C159        C160   1.209       .  T
C161        C162   1.206       .  T
C163        C164   1.209       .  T
C165        C526   1.207       .  T
C166        C525   1.207       .  T
C167        C528   1.207       .  T
C168        C527   1.204       .  T
C169        C170   1.207       .  T
C171        C172   1.207       .  T
C173        C174   1.207   1_455  T
C175        C176   1.207       .  T
C177        C178   1.210       .  T
C179        C180   1.210       .  T
N181        C186   1.356   1_655  A
N181        C185   1.355   1_655  A
N181        H213   1.035       .  S
N182        C189   1.351       .  A
N182        C190   1.352   1_655  A
N183        C188   1.355       .  A
N183        C187   1.356   1_455  A
N183        H214   1.035       .  S
N184        C191   1.352   1_455  A
N184        C192   1.351       .  A
C185        C193   1.388       .  A
C185        C201   1.418   1_455  A
C186        C202   1.418   1_455  A
C186        C194   1.388       .  A
C187        C195   1.388       .  A
C187        C204   1.418   1_655  A
C188        C203   1.418       .  A
C188        C196   1.388   1_455  A
C189        C201   1.414       .  A
C189        C197   1.387       .  A
C190        C204   1.415       .  A
C190        C198   1.387   1_455  A
C191        C199   1.387       .  A
C191        C202   1.415       .  A
C192        C200   1.388       .  A
C192        C203   1.415       .  A
C193        C194   1.373       .  A
C193        H205   1.082       .  S
C194        H206   1.082       .  S
C195        C196   1.373       .  A
C195        H207   1.082       .  S
C196        H208   1.082       .  S
C197        C198   1.371       .  A
C197        H209   1.082       .  S
C198        H210   1.082       .  S
C199        C200   1.372   1_655  A
C199        H211   1.082       .  S
C200        H212   1.082       .  S
C201        C354   1.452       .  S
C202        C356   1.453       .  S
C203        C358   1.452       .  S
C204        C360   1.454   1_455  S
O215        C226   1.289   1_455  A
O216        C227   1.290       .  A
O217        C228   1.291       .  A
O217      Eu1303   2.467       .  S
O218        C229   1.290   1_545  A
O218       Eu583   2.460       .  S
O219        C589   1.290       .  A
O220        C588   1.289       .  A
O221        C227   1.290       .  A
O221       Eu223   2.463       .  S
O222        C226   1.290       .  A
O222       Eu583   2.464   1_655  S
Eu223      O1297   2.466   1_455  S
Eu223       O578   2.465       .  S
Eu223       O582   2.469       .  S
Eu223       O593   2.358       .  S
Eu223      O1305   2.351   1_455  S
Eu223       O224   2.352       .  S
Eu223       O951   2.361   1_455  S
O225      Eu1303   2.354       .  S
O225       Eu791   2.356       .  S
O225       Eu432   2.352       .  S
C226        C359   1.437       .  S
C227        C357   1.435       .  S
C228        C352   1.440       .  S
C228        O580   1.290       .  A
C229        C350   1.436       .  S
C229        O579   1.290       .  A
H230        O231   0.967       .  S
O231       Eu943   2.358       .  S
O231       Eu790   2.356       .  S
H232        O233   0.967       .  S
O233       Eu583   2.356       .  S
O233       Eu433   2.358       .  S
O234        C257   1.290       .  A
O234       Eu250   2.461   1_556  S
O235        C258   1.290       .  A
O235       Eu251   2.463   1_456  S
O236        C259   1.291       .  A
O236       Eu252   2.466   1_556  S
O237        C260   1.290   1_556  A
O237       Eu253   2.460   1_556  S
O238        C261   1.290       .  A
O238       Eu613   2.461   1_556  S
O239        C262   1.291       .  A
O239       Eu612   2.466       .  S
O240        C263   1.290       .  A
O240       Eu974   2.463       .  S
O241        C264   1.290       .  A
O241       Eu254   2.460       .  S
O242        C263   1.290       .  A
O242       Eu252   2.459   1_556  S
O243        C264   1.291       .  A
O243       Eu253   2.465   1_556  S
O244        C259   1.291       .  A
O244       Eu970   2.466   1_556  S
O245        C262   1.291       .  A
O245       Eu971   2.467       .  S
O246        C261   1.290       .  A
O246       Eu251   2.460   1_456  S
O247        C260   1.290       .  A
O247       Eu250   2.459       .  S
O248        C257   1.290       .  A
O248       Eu254   2.462       .  S
O249        C258   1.290       .  A
O249       Eu614   2.459   1_455  S
Eu250       O964   2.464   1_455  S
Eu250       O771   2.356   1_455  S
Eu250       O268   2.359   1_554  S
Eu250       O976   2.355   1_454  S
Eu251       O965   2.465       .  S
Eu251       O765   2.353       .  S
Eu251       O255   2.354   1_654  S
Eu251       O986   2.356   1_554  S
Eu252       O599   2.464       .  S
Eu252       O405   2.355       .  S
Eu252       O626   2.359   1_554  S
Eu252       O256   2.355   1_554  S
Eu253       O598   2.459   1_554  S
Eu253       O413   2.358       .  S
Eu253       O615   2.354   1_554  S
Eu253       O268   2.354   1_554  S
Eu254       O960   2.462   1_455  S
Eu254       O609   2.471       .  S
Eu254       O615   2.350       .  S
Eu254      O1346   2.357   1_455  S
Eu254       O268   2.358       .  S
Eu254       O976   2.358   1_455  S
O255       Eu613   2.353   1_556  S
O255       Eu614   2.352   1_455  S
O256       Eu970   2.355   1_556  S
O256       Eu974   2.356       .  S
C257        C355   1.436       .  S
C258        C353   1.436       .  S
C259        C338   1.441       .  S
C260        C341   1.435   1_554  S
C261        C343   1.436       .  S
C262        C340   1.441       .  S
C263        C345   1.435       .  S
C264        C348   1.438       .  S
H265        O266   0.967       .  S
O266       Eu971   2.360   1_556  S
O266       Eu612   2.357   1_556  S
O266      Eu1334   2.358       .  S
H267        O268   0.967       .  S
N269        C274   1.355   1_565  A
N269        C273   1.354   1_565  A
N269        H301   1.038       .  S
N270        C277   1.352       .  A
N270        C278   1.352       .  A
N271        C276   1.353   1_565  A
N271        C275   1.354   1_565  A
N271        H302   1.037       .  S
N272        C279   1.353       .  A
N272        C280   1.353       .  A
C273        C281   1.388       .  A
C273        C289   1.415   1_545  A
C274        C290   1.416   1_545  A
C274        C282   1.387       .  A
C275        C283   1.388       .  A
C275        C292   1.415       .  A
C276        C291   1.414       .  A
C276        C284   1.388       .  A
C277        C289   1.413       .  A
C277        C285   1.387       .  A
C278        C292   1.413   1_565  A
C278        C286   1.387       .  A
C279        C287   1.386       .  A
C279        C290   1.414       .  A
C280        C288   1.387       .  A
C280        C291   1.414   1_565  A
C281        C282   1.375       .  A
C281        H293   1.082       .  S
C282        H294   1.082       .  S
C283        C284   1.376       .  A
C283        H295   1.083       .  S
C284        H296   1.082       .  S
C285        C286   1.373       .  A
C285        H297   1.082       .  S
C286        H298   1.082       .  S
C287        C288   1.373       .  A
C287        H299   1.082       .  S
C288        H300   1.082       .  S
C289        C349   1.452       .  S
C290        C351   1.455   1_565  S
C291        C346   1.454       .  S
C292        C347   1.452       .  S
N303        C308   1.354   1_556  A
N303        C307   1.354   1_556  A
N303        H335   1.036       .  S
N304        C311   1.352       .  A
N304        C312   1.352       .  A
N305        C310   1.354   1_556  A
N305        C309   1.354   1_556  A
N305        H336   1.037       .  S
N306        C313   1.353       .  A
N306        C314   1.353       .  A
C307        C315   1.388       .  A
C307        C323   1.416   1_554  A
C308        C324   1.417       .  A
C308        C316   1.388       .  A
C309        C317   1.388       .  A
C309        C326   1.416   1_554  A
C310        C325   1.417   1_554  A
C310        C318   1.388       .  A
C311        C323   1.414       .  A
C311        C319   1.387       .  A
C312        C326   1.413       .  A
C312        C320   1.387       .  A
C313        C321   1.387       .  A
C313        C324   1.416   1_556  A
C314        C322   1.387       .  A
C314        C325   1.416       .  A
C315        C316   1.376       .  A
C315        H327   1.083       .  S
C316        H328   1.082       .  S
C317        C318   1.376       .  A
C317        H329   1.083       .  S
C318        H330   1.082       .  S
C319        C320   1.374       .  A
C319        H331   1.082       .  S
C320        H332   1.083       .  S
C321        C322   1.374       .  A
C321        H333   1.082       .  S
C322        H334   1.082       .  S
C323        C344   1.451       .  S
C324        C339   1.456       .  S
C325        C337   1.456       .  S
C326        C342   1.451       .  S
C337        C338   1.210       .  T
C339        C340   1.210       .  T
C341        C342   1.207       .  T
C343        C344   1.207       .  T
C345        C706   1.206       .  T
C346        C705   1.208       .  T
C347        C708   1.207       .  T
C348        C707   1.208       .  T
C349        C350   1.207       .  T
C351        C352   1.209       .  T
C353        C354   1.207   1_455  T
C355        C356   1.207   1_455  T
C357        C358   1.206       .  T
C359        C360   1.207       .  T
N361        C366   1.354   1_455  A
N361        C365   1.355   1_455  A
N361        H393   1.038       .  S
N362        C369   1.352       .  A
N362        C370   1.353       .  A
N363        C368   1.354   1_455  A
N363        C367   1.354   1_455  A
N363        H394   1.036       .  S
N364        C371   1.352       .  A
N364        C372   1.352       .  A
C365        C373   1.388       .  A
C365        C381   1.416   1_655  A
C366        C382   1.415   1_655  A
C366        C374   1.388       .  A
C367        C375   1.388       .  A
C367        C384   1.416   1_655  A
C368        C383   1.415   1_655  A
C368        C376   1.387       .  A
C369        C381   1.414       .  A
C369        C377   1.387       .  A
C370        C384   1.415       .  A
C370        C378   1.387       .  A
C371        C379   1.387       .  A
C371        C382   1.412       .  A
C372        C380   1.387       .  A
C372        C383   1.413       .  A
C373        C374   1.377       .  A
C373        H385   1.082       .  S
C374        H386   1.083       .  S
C375        C376   1.376       .  A
C375        H387   1.082       .  S
C376        H388   1.082       .  S
C377        C378   1.374       .  A
C377        H389   1.082       .  S
C378        H390   1.082       .  S
C379        C380   1.372       .  A
C379        H391   1.082       .  S
C380        H392   1.082       .  S
C381        C534   1.455       .  S
C382        C536   1.451   1_455  S
C383        C538   1.452       .  S
C384        C540   1.454   1_455  S
O395        C406   1.291       .  A
O395       Eu611   2.466   1_654  S
O396        C407   1.290       .  A
O396       Eu610   2.461   1_455  S
O397        C408   1.290       .  A
O397       Eu763   2.462       .  S
O398        C409   1.289       .  A
O399       Eu613   2.462       .  S
O400       Eu612   2.455       .  S
O401        C407   1.290       .  A
O401       Eu403   2.461   1_565  S
O402        C406   1.290       .  A
Eu403       O757   2.465   1_455  S
Eu403       O765   2.353   1_455  S
Eu403       O404   2.352   1_545  S
Eu403      O1131   2.357   1_445  S
O404       Eu613   2.350   1_565  S
O404       Eu610   2.352   1_455  S
O405       Eu763   2.356       .  S
O405      Eu1331   2.355       .  S
C406        C539   1.439       .  S
C407        C537   1.436       .  S
C408        C532   1.438       .  S
C409        C530   1.435       .  S
H410        O411   0.967       .  S
O411      Eu1123   2.358   1_565  S
O411       Eu612   2.357   1_565  S
O411      Eu1330   2.356       .  S
H412        O413   0.967       .  S
O413       Eu611   2.360   1_554  S
O414        C437   1.290       .  A
O414       Eu430   2.459   1_655  S
O415        C438   1.290       .  A
O415       Eu431   2.465       .  S
O416        C439   1.291       .  A
O416       Eu432   2.465   1_565  S
O417        C440   1.290       .  A
O417       Eu433   2.461   1_565  S
O418        C441   1.290       .  A
O419        C442   1.290       .  A
O420        C443   1.290       .  A
O420      Eu1154   2.461       .  S
O421        C444   1.290       .  A
O421       Eu434   2.461       .  S
O422        C443   1.290       .  A
O422       Eu432   2.461       .  S
O423        C444   1.289       .  A
O423       Eu433   2.459       .  S
O424        C439   1.291       .  A
O424      Eu1150   2.464       .  S
O425        C442   1.290       .  A
O425      Eu1151   2.464       .  S
O426        C441   1.289       .  A
O426       Eu431   2.461       .  S
O427        C440   1.291       .  A
O427       Eu430   2.465       .  S
O428        C437   1.290       .  A
O428       Eu434   2.460   1_665  S
O429        C438   1.290   1_655  A
Eu430       O576   2.457       .  S
Eu430      O1144   2.470   1_455  S
Eu430       O584   2.351       .  S
Eu430      O1311   2.356   1_455  S
Eu430       O448   2.359       .  S
Eu430      O1156   2.351   1_455  S
Eu431       O575   2.461       .  S
Eu431      O1145   2.462   1_455  S
Eu431      O1305   2.352   1_455  S
Eu431       O593   2.358       .  S
Eu431       O435   2.349       .  S
Eu431      O1166   2.356   1_455  S
Eu432       O580   2.463       .  S
Eu432       O591   2.354   1_545  S
Eu432       O436   2.358   1_545  S
Eu433       O579   2.461   1_545  S
Eu433       O584   2.350   1_545  S
Eu433       O448   2.359   1_545  S
Eu434      O1140   2.462   1_455  S
Eu434       O806   2.356   1_455  S
Eu434       O448   2.360   1_545  S
Eu434      O1156   2.354   1_445  S
O436      Eu1150   2.356       .  S
O436      Eu1154   2.356   1_565  S
C437        C535   1.435       .  S
C438        C533   1.439       .  S
C439        C518   1.439       .  S
C440        C521   1.438       .  S
C441        C523   1.437       .  S
C442        C520   1.436       .  S
C443        C525   1.436       .  S
C444        C528   1.435       .  S
H445        O446   0.967       .  S
O446      Eu1151   2.354       .  S
O446       Eu794   2.359       .  S
H447        O448   0.967       .  S
N449        C454   1.356       .  A
N449        C453   1.356       .  A
N449        H481   1.035       .  S
N450        C457   1.351       .  A
N450        C458   1.351       .  A
N451        C456   1.355       .  A
N451        C455   1.355       .  A
N451        H482   1.035       .  S
N452        C459   1.352       .  A
N452        C460   1.352       .  A
C453        C461   1.388       .  A
C453        C469   1.418       .  A
C454        C470   1.418       .  A
C454        C462   1.388       .  A
C455        C463   1.388       .  A
C455        C472   1.417       .  A
C456        C471   1.418       .  A
C456        C464   1.388       .  A
C457        C469   1.414       .  A
C457        C465   1.388       .  A
C458        C472   1.414       .  A
C458        C466   1.388       .  A
C459        C467   1.387       .  A
C459        C470   1.416       .  A
C460        C468   1.387       .  A
C460        C471   1.416       .  A
C461        C462   1.372       .  A
C461        H473   1.082       .  S
C462        H474   1.082       .  S
C463        C464   1.373       .  A
C463        H475   1.083       .  S
C464        H476   1.082       .  S
C465        C466   1.371       .  A
C465        H477   1.082       .  S
C466        H478   1.083       .  S
C467        C468   1.372       .  A
C467        H479   1.082       .  S
C468        H480   1.082       .  S
C469        C529   1.452       .  S
C470        C531   1.454       .  S
C471        C526   1.452       .  S
C472        C527   1.448       .  S
N483        C488   1.354       .  A
N483        C487   1.354       .  A
N483        H515   1.036       .  S
N484        C491   1.352       .  A
N484        C492   1.351       .  A
N485        C490   1.355       .  A
N485        C489   1.354       .  A
N485        H516   1.037       .  S
N486        C493   1.352       .  A
N486        C494   1.352       .  A
C487        C495   1.388       .  A
C487        C503   1.415       .  A
C488        C504   1.415       .  A
C488        C496   1.387       .  A
C489        C497   1.388       .  A
C489        C506   1.417       .  A
C490        C505   1.417       .  A
C490        C498   1.387       .  A
C491        C503   1.413       .  A
C491        C499   1.387       .  A
C492        C506   1.413       .  A
C492        C500   1.388       .  A
C493        C501   1.387       .  A
C493        C504   1.413       .  A
C494        C502   1.387       .  A
C494        C505   1.413       .  A
C495        C496   1.375       .  A
C495        H507   1.082       .  S
C496        H508   1.082       .  S
C497        C498   1.377       .  A
C497        H509   1.082       .  S
C498        H510   1.082       .  S
C499        C500   1.374       .  A
C499        H511   1.083       .  S
C500        H512   1.083       .  S
C501        C502   1.373       .  A
C501        H513   1.082       .  S
C502        H514   1.082       .  S
C503        C524   1.452       .  S
C504        C519   1.452       .  S
C505        C517   1.454       .  S
C506        C522   1.453       .  S
C517        C518   1.209       .  T
C519        C520   1.207       .  T
C521        C522   1.208       .  T
C523        C524   1.207       .  T
C529        C530   1.207       .  T
C531        C532   1.208       .  T
C533        C534   1.209       .  T
C535        C536   1.206       .  T
C537        C538   1.207       .  T
C539        C540   1.209       .  T
N541        C546   1.354   1_655  A
N541        C545   1.354   1_655  A
N541        H573   1.039       .  S
N542        C549   1.354       .  A
N542        C550   1.354       .  A
N543        C548   1.352   1_655  A
N543        C547   1.352   1_655  A
N543        H574   1.038       .  S
N544        C551   1.352       .  A
N544        C552   1.352       .  A
C545        C553   1.387       .  A
C545        C561   1.415   1_455  A
C546        C562   1.414   1_455  A
C546        C554   1.388       .  A
C547        C555   1.388       .  A
C547        C564   1.413   1_455  A
C548        C563   1.412   1_455  A
C548        C556   1.389       .  A
C549        C561   1.414       .  A
C549        C557   1.385       .  A
C550        C564   1.414       .  A
C550        C558   1.386       .  A
C551        C559   1.387       .  A
C551        C562   1.413       .  A
C552        C560   1.387       .  A
C552        C563   1.412       .  A
C553        C554   1.377       .  A
C553        H565   1.082       .  S
C554        H566   1.083       .  S
C555        C556   1.376       .  A
C555        H567   1.083       .  S
C556        H568   1.083       .  S
C557        C558   1.373       .  A
C557        H569   1.082       .  S
C558        H570   1.082       .  S
C559        C560   1.374       .  A
C559        H571   1.082       .  S
C560        H572   1.082       .  S
C561        C714   1.459   1_655  S
C562        C716   1.453       .  S
C563        C718   1.448   1_655  S
C564        C720   1.454       .  S
O575        C586   1.290       .  A
O576        C587   1.290       .  A
O577        C588   1.290       .  A
O577       Eu943   2.464       .  S
O578        C589   1.290       .  A
O581        C587   1.288       .  A
O581       Eu583   2.452   1_565  S
O582        C586   1.291       .  A
Eu583       O937   2.465   1_455  S
Eu583       O945   2.350   1_455  S
Eu583       O584   2.352   1_545  S
Eu583      O1311   2.358   1_445  S
O585       Eu943   2.354       .  S
O585      Eu1151   2.351       .  S
C586        C719   1.439   1_455  S
C587        C717   1.431       .  S
C588        C712   1.435       .  S
C589        C710   1.436       .  S
H590        O591   0.967       .  S
O591      Eu1303   2.352   1_565  S
O591      Eu1150   2.356       .  S
H592        O593   0.967       .  S
O594        C617   1.291       .  A
O594       Eu610   2.467   1_556  S
O595        C618   1.292       .  A
O595       Eu611   2.472       .  S
O596        C619   1.291       .  A
O596       Eu612   2.467   1_565  S
O597        C620   1.290       .  A
O597       Eu613   2.463   1_565  S
O598        C621   1.290       .  A
O599        C622   1.290       .  A
O600        C623   1.291       .  A
O600      Eu1334   2.466       .  S
O601        C624   1.290       .  A
O601       Eu614   2.464   1_455  S
O602        C623   1.290       .  A
O602       Eu612   2.462   1_556  S
O603        C624   1.290       .  A
O603       Eu613   2.460   1_556  S
O604        C619   1.291       .  A
O604      Eu1330   2.467       .  S
O605        C622   1.291       .  A
O605      Eu1331   2.467       .  S
O606        C621   1.289       .  A
O606       Eu611   2.458       .  S
O607        C620   1.289       .  A
O607       Eu610   2.457   1_455  S
O608        C617   1.289       .  A
O608       Eu614   2.458   1_565  S
O609        C618   1.292       .  A
Eu610      O1324   2.461       .  S
Eu610      O1131   2.357       .  S
Eu610       O628   2.356   1_654  S
Eu610      O1336   2.354   1_554  S
Eu611      O1325   2.459   1_456  S
Eu611      O1125   2.353   1_456  S
Eu611       O615   2.351       .  S
Eu611      O1346   2.357   1_455  S
Eu612       O616   2.354   1_544  S
Eu613       O628   2.357   1_544  S
Eu614      O1320   2.466       .  S
Eu614       O986   2.357       .  S
Eu614       O628   2.357   1_645  S
Eu614      O1336   2.354   1_545  S
O616      Eu1330   2.355   1_556  S
O616      Eu1334   2.355   1_565  S
C617        C715   1.438       .  S
C618        C713   1.445       .  S
C619        C698   1.441       .  S
C620        C701   1.436       .  S
C621        C703   1.435       .  S
C622        C700   1.439       .  S
C623        C705   1.439       .  S
C624        C708   1.437       .  S
H625        O626   0.967       .  S
O626      Eu1331   2.358   1_556  S
O626       Eu974   2.362       .  S
H627        O628   0.967       .  S
N629        C634   1.354       .  A
N629        C633   1.353       .  A
N629        H661   1.037       .  S
N630        C637   1.351       .  A
N630        C638   1.351       .  A
N631        C636   1.354       .  A
N631        C635   1.354       .  A
N631        H662   1.036       .  S
N632        C639   1.351       .  A
N632        C640   1.350       .  A
C633        C641   1.388       .  A
C633        C649   1.415       .  A
C634        C650   1.415       .  A
C634        C642   1.388       .  A
C635        C643   1.387       .  A
C635        C652   1.416       .  A
C636        C651   1.417       .  A
C636        C644   1.388       .  A
C637        C649   1.413       .  A
C637        C645   1.387       .  A
C638        C652   1.413       .  A
C638        C646   1.387       .  A
C639        C647   1.387       .  A
C639        C650   1.412       .  A
C640        C648   1.388       .  A
C640        C651   1.413       .  A
C641        C642   1.376       .  A
C641        H653   1.082       .  S
C642        H654   1.082       .  S
C643        C644   1.376       .  A
C643        H655   1.082       .  S
C644        H656   1.082       .  S
C645        C646   1.374       .  A
C645        H657   1.082       .  S
C646        H658   1.082       .  S
C647        C648   1.373       .  A
C647        H659   1.083       .  S
C648        H660   1.083       .  S
C649        C709   1.451       .  S
C650        C711   1.450       .  S
C651        C706   1.451       .  S
C652        C707   1.453       .  S
N663        C668   1.353   1_556  A
N663        C667   1.352   1_556  A
N663        H695   1.039       .  S
N664        C671   1.352   1_554  A
N664        C672   1.352   1_554  A
N665        C670   1.354   1_556  A
N665        C669   1.353   1_556  A
N665        H696   1.038       .  S
N666        C673   1.352       .  A
N666        C674   1.352       .  A
C667        C675   1.387       .  A
C667        C683   1.411   1_554  A
C668        C684   1.413   1_554  A
C668        C676   1.388       .  A
C669        C677   1.388       .  A
C669        C686   1.415       .  A
C670        C685   1.417   1_554  A
C670        C678   1.388       .  A
C671        C683   1.411       .  A
C671        C679   1.386       .  A
C672        C686   1.412   1_556  A
C672        C680   1.387       .  A
C673        C681   1.386       .  A
C673        C684   1.413       .  A
C674        C682   1.387       .  A
C674        C685   1.414       .  A
C675        C676   1.377       .  A
C675        H687   1.083       .  S
C676        H688   1.082       .  S
C677        C678   1.378       .  A
C677        H689   1.083       .  S
C678        H690   1.082       .  S
C679        C680   1.374       .  A
C679        H691   1.082       .  S
C680        H692   1.082       .  S
C681        C682   1.374       .  A
C681        H693   1.082       .  S
C682        H694   1.082       .  S
C683        C704   1.449       .  S
C684        C699   1.453   1_556  S
C685        C697   1.455   1_556  S
C686        C702   1.451       .  S
C697        C698   1.209       .  T
C699        C700   1.208       .  T
C701        C702   1.207       .  T
C703        C704   1.206       .  T
C709        C710   1.207       .  T
C711        C712   1.206       .  T
C713        C714   1.212       .  T
C715        C716   1.208       .  T
C717        C718   1.204       .  T
C719        C720   1.209       .  T
N721        C726   1.353       .  A
N721        C725   1.353       .  A
N721        H753   1.038       .  S
N722        C729   1.354       .  A
N722        C730   1.354       .  A
N723        C728   1.352       .  A
N723        C727   1.353       .  A
N723        H754   1.041       .  S
N724        C731   1.354       .  A
N724        C732   1.354       .  A
C725        C733   1.389       .  A
C725        C741   1.415       .  A
C726        C742   1.415       .  A
C726        C734   1.389       .  A
C727        C735   1.387       .  A
C727        C744   1.412       .  A
C728        C743   1.412       .  A
C728        C736   1.388       .  A
C729        C741   1.414       .  A
C729        C737   1.386       .  A
C730        C744   1.412       .  A
C730        C738   1.385       .  A
C731        C739   1.386       .  A
C731        C742   1.415       .  A
C732        C740   1.385       .  A
C732        C743   1.413       .  A
C733        C734   1.379       .  A
C733        H745   1.083       .  S
C734        H746   1.083       .  S
C735        C736   1.379       .  A
C735        H747   1.083       .  S
C736        H748   1.083       .  S
C737        C738   1.373       .  A
C737        H749   1.082       .  S
C738        H750   1.082       .  S
C739        C740   1.374       .  A
C739        H751   1.082       .  S
C740        H752   1.082       .  S
C741        C894   1.455       .  S
C742        C896   1.455       .  S
C743        C898   1.455       .  S
C744        C900   1.456       .  S
O755        C766   1.291       .  A
O755       Eu971   2.469       .  S
O756        C767   1.291       .  A
O756       Eu970   2.466       .  S
O757        C768   1.291       .  A
O758        C769   1.290       .  A
O758      Eu1123   2.461       .  S
O759       C1129   1.290       .  A
O759       Eu973   2.464       .  S
O760       C1128   1.291       .  A
O760       Eu972   2.467       .  S
O761        C767   1.291       .  A
O761       Eu763   2.465       .  S
O762        C766   1.291       .  A
O762      Eu1123   2.465       .  S
Eu763      O1118   2.469       .  S
Eu763      O1122   2.464       .  S
Eu763      O1133   2.358       .  S
Eu763       O764   2.355       .  S
O764       Eu973   2.355       .  S
O764       Eu970   2.355       .  S
O765      Eu1332   2.354       .  S
C766        C899   1.442       .  S
C767        C897   1.441       .  S
C768        C892   1.436       .  S
C768       O1120   1.289       .  A
C769        C890   1.438       .  S
C769       O1119   1.290       .  A
H770        O771   0.967       .  S
O771       Eu972   2.355       .  S
H772        O773   0.967       .  S
O773      Eu1123   2.358       .  S
O773       Eu971   2.357       .  S
O773      Eu1333   2.357       .  S
O774        C797   1.291       .  A
O774       Eu790   2.465       .  S
O775        C798   1.290       .  A
O775       Eu791   2.467       .  S
O776        C799   1.290       .  A
O776       Eu792   2.462       .  S
O777        C800   1.290       .  A
O777       Eu793   2.464       .  S
O778        C801   1.290       .  A
O778      Eu1153   2.462       .  S
O779        C802   1.290       .  A
O779      Eu1152   2.461       .  S
O780        C803   1.290       .  A
O781        C804   1.291       .  A
O781       Eu794   2.466       .  S
O782        C803   1.291       .  A
O782       Eu792   2.467       .  S
O783        C804   1.290       .  A
O783       Eu793   2.463       .  S
O784        C799   1.290       .  A
O785        C802   1.291       .  A
O786        C801   1.291       .  A
O786       Eu791   2.464       .  S
O787        C800   1.290       .  A
O787       Eu790   2.463       .  S
O788        C797   1.291       .  A
O788       Eu794   2.464       .  S
O789        C798   1.291       .  A
O789      Eu1154   2.467       .  S
Eu790       O936   2.465       .  S
Eu790       O944   2.354       .  S
Eu790       O808   2.356       .  S
Eu791       O935   2.465       .  S
Eu791       O953   2.360       .  S
Eu791       O795   2.354       .  S
Eu792       O940   2.462       .  S
Eu792      O1139   2.460       .  S
Eu792      O1305   2.354       .  S
Eu792       O951   2.359       .  S
Eu792      O1166   2.355       .  S
Eu792       O796   2.352       .  S
Eu793       O939   2.459       .  S
Eu793      O1138   2.454       .  S
Eu793       O944   2.353       .  S
Eu793      O1313   2.361       .  S
Eu793      O1155   2.355       .  S
Eu793       O808   2.353       .  S
Eu794      O1149   2.464       .  S
Eu794      O1155   2.353       .  S
Eu794       O808   2.355       .  S
O795      Eu1153   2.355       .  S
O795      Eu1154   2.353       .  S
C797        C895   1.440       .  S
C798        C893   1.441       .  S
C799        C878   1.438       .  S
C800        C881   1.440       .  S
C801        C883   1.438       .  S
C802        C880   1.439       .  S
C803        C885   1.439       .  S
C804        C888   1.440       .  S
H805        O806   0.967       .  S
O806      Eu1152   2.360       .  S
H807        O808   0.967       .  S
N809        C814   1.354   1_545  A
N809        C813   1.354   1_545  A
N809        H841   1.036       .  S
N810        C817   1.352       .  A
N810        C818   1.352       .  A
N811        C816   1.355   1_545  A
N811        C815   1.355   1_545  A
N811        H842   1.037       .  S
N812        C819   1.352       .  A
N812        C820   1.352       .  A
C813        C821   1.388       .  A
C813        C829   1.416   1_565  A
C814        C830   1.416   1_565  A
C814        C822   1.388       .  A
C815        C823   1.388       .  A
C815        C832   1.417   1_565  A
C816        C831   1.417   1_565  A
C816        C824   1.388       .  A
C817        C829   1.414       .  A
C817        C825   1.387       .  A
C818        C832   1.414       .  A
C818        C826   1.387       .  A
C819        C827   1.387       .  A
C819        C830   1.414       .  A
C820        C828   1.387       .  A
C820        C831   1.414       .  A
C821        C822   1.376       .  A
C821        H833   1.082       .  S
C822        H834   1.082       .  S
C823        C824   1.376       .  A
C823        H835   1.082       .  S
C824        H836   1.082       .  S
C825        C826   1.374       .  A
C825        H837   1.082       .  S
C826        H838   1.083       .  S
C827        C828   1.373       .  A
C827        H839   1.083       .  S
C828        H840   1.082       .  S
C829        C889   1.453       .  S
C830        C891   1.452       .  S
C831        C886   1.454       .  S
C832        C887   1.454       .  S
N843        C848   1.354       .  A
N843        C847   1.353       .  A
N843        H875   1.037       .  S
N844        C851   1.354       .  A
N844        C852   1.354       .  A
N845        C850   1.354       .  A
N845        C849   1.354       .  A
N845        H876   1.036       .  S
N846        C853   1.354       .  A
N846        C854   1.354       .  A
C847        C855   1.388       .  A
C847        C863   1.415       .  A
C848        C864   1.415       .  A
C848        C856   1.388       .  A
C849        C857   1.388       .  A
C849        C866   1.417       .  A
C850        C865   1.416       .  A
C850        C858   1.388       .  A
C851        C863   1.415       .  A
C851        C859   1.386       .  A
C852        C866   1.416       .  A
C852        C860   1.386       .  A
C853        C861   1.386       .  A
C853        C864   1.415       .  A
C854        C862   1.386       .  A
C854        C865   1.416       .  A
C855        C856   1.377       .  A
C855        H867   1.083       .  S
C856        H868   1.083       .  S
C857        C858   1.375       .  A
C857        H869   1.082       .  S
C858        H870   1.083       .  S
C859        C860   1.372       .  A
C859        H871   1.082       .  S
C860        H872   1.082       .  S
C861        C862   1.372       .  A
C861        H873   1.082       .  S
C862        H874   1.082       .  S
C863        C884   1.454       .  S
C864        C879   1.455       .  S
C865        C877   1.454       .  S
C866        C882   1.456       .  S
C877        C878   1.208       .  T
C879        C880   1.209       .  T
C881        C882   1.209       .  T
C883        C884   1.208       .  T
C885       C1246   1.209       .  T
C886       C1245   1.209   1_545  T
C887       C1248   1.208       .  T
C888       C1247   1.209       .  T
C889        C890   1.208       .  T
C891        C892   1.207       .  T
C893        C894   1.209       .  T
C895        C896   1.209       .  T
C897        C898   1.210       .  T
C899        C900   1.210       .  T
N901        C906   1.354       .  A
N901        C905   1.353       .  A
N901        H933   1.036       .  S
N902        C909   1.352       .  A
N902        C910   1.352       .  A
N903        C908   1.354       .  A
N903        C907   1.354       .  A
N903        H934   1.038       .  S
N904        C911   1.352       .  A
N904        C912   1.352       .  A
C905        C913   1.388       .  A
C905        C921   1.417       .  A
C906        C922   1.417       .  A
C906        C914   1.388       .  A
C907        C915   1.388       .  A
C907        C924   1.415       .  A
C908        C923   1.415       .  A
C908        C916   1.387       .  A
C909        C921   1.414       .  A
C909        C917   1.388       .  A
C910        C924   1.413       .  A
C910        C918   1.387       .  A
C911        C919   1.387       .  A
C911        C922   1.414       .  A
C912        C920   1.387       .  A
C912        C923   1.413       .  A
C913        C914   1.378       .  A
C913        H925   1.083       .  S
C914        H926   1.083       .  S
C915        C916   1.377       .  A
C915        H927   1.082       .  S
C916        H928   1.082       .  S
C917        C918   1.375       .  A
C917        H929   1.082       .  S
C918        H930   1.082       .  S
C919        C920   1.375       .  A
C919        H931   1.082       .  S
C920        H932   1.082       .  S
C921       C1074   1.452       .  S
C922       C1076   1.455       .  S
C923       C1078   1.455       .  S
C924       C1080   1.454       .  S
O935        C946   1.291       .  A
O936        C947   1.291       .  A
O937        C948   1.291       .  A
O938        C949   1.290   1_545  A
O938      Eu1303   2.461       .  S
O939       C1309   1.290       .  A
O940       C1308   1.290       .  A
O941        C947   1.291       .  A
O941       Eu943   2.466       .  S
O942        C946   1.290       .  A
O942      Eu1303   2.463       .  S
Eu943      O1298   2.471       .  S
Eu943      O1302   2.467       .  S
Eu943      O1313   2.356       .  S
Eu943       O944   2.354       .  S
O945      Eu1152   2.356       .  S
C946       C1079   1.439       .  S
C947       C1077   1.440       .  S
C948       C1072   1.441       .  S
C948       O1300   1.291       .  A
C949       C1070   1.437       .  S
C949       O1299   1.290   1_565  A
H950        O951   0.967       .  S
H952        O953   0.967       .  S
O953      Eu1303   2.359       .  S
O953      Eu1153   2.358       .  S
O954        C977   1.290       .  A
O954       Eu970   2.459   1_556  S
O955        C978   1.290       .  A
O955       Eu971   2.463   1_556  S
O956        C979   1.290       .  A
O956       Eu972   2.464       .  S
O957        C980   1.290       .  A
O957       Eu973   2.461       .  S
O958        C981   1.290       .  A
O958      Eu1333   2.463   1_556  S
O959        C982   1.290       .  A
O959      Eu1332   2.464       .  S
O960        C983   1.290       .  A
O961        C984   1.292       .  A
O961       Eu974   2.471       .  S
O962        C983   1.290       .  A
O962       Eu972   2.461   1_556  S
O963        C984   1.290       .  A
O963       Eu973   2.463   1_556  S
O964        C979   1.290       .  A
O965        C982   1.291       .  A
O966        C981   1.291       .  A
O966       Eu971   2.469   1_556  S
O967        C980   1.290       .  A
O967       Eu970   2.463       .  S
O968        C977   1.292       .  A
O968       Eu974   2.471       .  S
O969        C978   1.290       .  A
O969      Eu1334   2.462       .  S
Eu970       O988   2.359   1_554  S
Eu971       O975   2.352   1_554  S
Eu972      O1319   2.457       .  S
Eu972      O1125   2.350       .  S
Eu972      O1346   2.362   1_554  S
Eu972       O976   2.353   1_554  S
Eu973      O1318   2.456   1_554  S
Eu973      O1133   2.358       .  S
Eu973      O1335   2.355   1_554  S
Eu973       O988   2.355   1_554  S
Eu974      O1329   2.464       .  S
Eu974      O1335   2.353       .  S
Eu974       O988   2.355       .  S
O975      Eu1333   2.351   1_556  S
O975      Eu1334   2.351       .  S
C977       C1075   1.440       .  S
C978       C1073   1.437       .  S
C979       C1058   1.439       .  S
C980       C1061   1.438       .  S
C981       C1063   1.441       .  S
C982       C1060   1.440       .  S
C983       C1065   1.437       .  S
C984       C1068   1.442       .  S
H985        O986   0.967       .  S
O986      Eu1332   2.357   1_556  S
H987        O988   0.967       .  S
N989        C994   1.355   1_545  A
N989        C993   1.354   1_545  A
N989       H1021   1.036       .  S
N990        C997   1.352       .  A
N990        C998   1.352       .  A
N991        C996   1.354   1_545  A
N991        C995   1.354   1_545  A
N991       H1022   1.037       .  S
N992        C999   1.353       .  A
N992       C1000   1.353       .  A
C993       C1001   1.388       .  A
C993       C1009   1.418   1_565  A
C994       C1010   1.418   1_565  A
C994       C1002   1.388       .  A
C995       C1003   1.388       .  A
C995       C1012   1.417   1_565  A
C996       C1011   1.417   1_565  A
C996       C1004   1.388       .  A
C997       C1009   1.415       .  A
C997       C1005   1.387       .  A
C998       C1012   1.414       .  A
C998       C1006   1.387       .  A
C999       C1007   1.387       .  A
C999       C1010   1.415       .  A
C1000      C1008   1.387       .  A
C1000      C1011   1.415       .  A
C1001      C1002   1.376       .  A
C1001      H1013   1.082       .  S
C1002      H1014   1.082       .  S
C1003      C1004   1.377       .  A
C1003      H1015   1.082       .  S
C1004      H1016   1.082       .  S
C1005      C1006   1.373       .  A
C1005      H1017   1.082       .  S
C1006      H1018   1.083       .  S
C1007      C1008   1.374       .  A
C1007      H1019   1.082       .  S
C1008      H1020   1.082       .  S
C1009      C1069   1.453       .  S
C1010      C1071   1.456       .  S
C1011      C1066   1.454       .  S
C1012      C1067   1.453       .  S
N1023      C1028   1.355       .  A
N1023      C1027   1.354       .  A
N1023      H1055   1.035   1_554  S
N1024      C1031   1.353   1_554  A
N1024      C1032   1.353   1_554  A
N1025      C1030   1.355   1_556  A
N1025      C1029   1.355   1_556  A
N1025      H1056   1.035       .  S
N1026      C1033   1.353   1_554  A
N1026      C1034   1.352   1_554  A
C1027      C1035   1.387       .  A
C1027      C1043   1.418       .  A
C1028      C1044   1.418       .  A
C1028      C1036   1.388       .  A
C1029      C1037   1.388       .  A
C1029      C1046   1.418   1_554  A
C1030      C1045   1.418   1_554  A
C1030      C1038   1.388       .  A
C1031      C1043   1.416   1_556  A
C1031      C1039   1.387       .  A
C1032      C1046   1.415       .  A
C1032      C1040   1.387       .  A
C1033      C1041   1.387       .  A
C1033      C1044   1.415   1_556  A
C1034      C1042   1.387       .  A
C1034      C1045   1.415       .  A
C1035      C1036   1.376       .  A
C1035      H1047   1.082       .  S
C1036      H1048   1.082       .  S
C1037      C1038   1.375       .  A
C1037      H1049   1.082       .  S
C1038      H1050   1.082       .  S
C1039      C1040   1.372       .  A
C1039      H1051   1.082       .  S
C1040      H1052   1.082       .  S
C1041      C1042   1.373       .  A
C1041      H1053   1.082       .  S
C1042      H1054   1.083       .  S
C1043      C1064   1.456   1_554  S
C1044      C1059   1.455       .  S
C1045      C1057   1.455       .  S
C1046      C1062   1.454       .  S
C1057      C1058   1.209   1_556  T
C1059      C1060   1.209       .  T
C1061      C1062   1.208   1_554  T
C1063      C1064   1.209       .  T
C1065      C1426   1.207       .  T
C1066      C1425   1.209       .  T
C1067      C1428   1.208       .  T
C1068      C1427   1.210       .  T
C1069      C1070   1.208   1_545  T
C1071      C1072   1.210       .  T
C1073      C1074   1.208       .  T
C1075      C1076   1.209       .  T
C1077      C1078   1.209       .  T
C1079      C1080   1.209       .  T
N1081      C1086   1.354       .  A
N1081      C1085   1.355       .  A
N1081      H1113   1.039       .  S
N1082      C1089   1.351       .  A
N1082      C1090   1.351       .  A
N1083      C1088   1.355       .  A
N1083      C1087   1.354       .  A
N1083      H1114   1.037       .  S
N1084      C1091   1.350       .  A
N1084      C1092   1.350       .  A
C1085      C1093   1.387       .  A
C1085      C1101   1.415       .  A
C1086      C1102   1.415       .  A
C1086      C1094   1.387       .  A
C1087      C1095   1.388       .  A
C1087      C1104   1.417       .  A
C1088      C1103   1.418       .  A
C1088      C1096   1.388       .  A
C1089      C1101   1.412       .  A
C1089      C1097   1.387       .  A
C1090      C1104   1.414       .  A
C1090      C1098   1.388       .  A
C1091      C1099   1.387       .  A
C1091      C1102   1.411       .  A
C1092      C1100   1.388       .  A
C1092      C1103   1.413       .  A
C1093      C1094   1.376       .  A
C1093      H1105   1.082       .  S
C1094      H1106   1.082       .  S
C1095      C1096   1.378       .  A
C1095      H1107   1.082       .  S
C1096      H1108   1.082       .  S
C1097      C1098   1.376       .  A
C1097      H1109   1.083       .  S
C1098      H1110   1.083       .  S
C1099      C1100   1.376       .  A
C1099      H1111   1.083       .  S
C1100      H1112   1.083       .  S
C1101      C1254   1.454       .  S
C1102      C1256   1.452       .  S
C1103      C1258   1.452       .  S
C1104      C1260   1.453       .  S
O1115      C1126   1.291       .  A
O1115     Eu1331   2.465       .  S
O1116      C1127   1.290       .  A
O1116     Eu1330   2.461       .  S
O1117      C1128   1.290       .  A
O1118      C1129   1.291       .  A
O1119     Eu1333   2.463       .  S
O1120     Eu1332   2.457       .  S
O1121      C1127   1.291       .  A
O1121     Eu1123   2.463   1_565  S
O1122      C1126   1.291       .  A
Eu1123     O1124   2.355   1_545  S
O1124     Eu1333   2.354   1_565  S
O1124     Eu1330   2.356       .  S
C1126      C1259   1.439       .  S
C1127      C1257   1.438       .  S
C1128      C1252   1.440       .  S
C1129      C1250   1.442       .  S
H1130      O1131   0.967       .  S
O1131     Eu1332   2.358   1_565  S
H1132      O1133   0.967       .  S
O1133     Eu1331   2.360       .  S
O1134      C1157   1.291       .  A
O1134     Eu1150   2.464       .  S
O1135      C1158   1.291       .  A
O1135     Eu1151   2.467       .  S
O1136      C1159   1.290       .  A
O1136     Eu1152   2.463   1_565  S
O1137      C1160   1.290       .  A
O1137     Eu1153   2.462   1_565  S
O1138      C1161   1.289       .  A
O1139      C1162   1.290       .  A
O1140      C1163   1.290   1_545  A
O1141      C1164   1.290       .  A
O1141     Eu1154   2.463       .  S
O1142      C1163   1.291       .  A
O1142     Eu1152   2.465   1_565  S
O1143      C1164   1.290       .  A
O1143     Eu1153   2.462       .  S
O1144      C1159   1.291       .  A
O1145      C1162   1.291       .  A
O1146      C1161   1.290       .  A
O1146     Eu1151   2.459       .  S
O1147      C1160   1.290       .  A
O1147     Eu1150   2.465       .  S
O1148      C1157   1.290       .  A
O1148     Eu1154   2.461   1_565  S
O1149      C1158   1.290       .  A
Eu1150     O1296   2.459       .  S
Eu1150     O1304   2.355       .  S
Eu1150     O1168   2.355       .  S
Eu1151     O1295   2.459       .  S
Eu1151     O1313   2.361       .  S
Eu1151     O1155   2.355       .  S
Eu1152     O1300   2.467       .  S
Eu1152     O1311   2.356   1_545  S
Eu1152     O1156   2.352   1_545  S
Eu1153     O1299   2.463       .  S
Eu1153     O1304   2.354   1_545  S
Eu1153     O1168   2.357   1_545  S
Eu1154     O1168   2.357   1_545  S
C1157      C1255   1.438       .  S
C1158      C1253   1.440       .  S
C1159      C1238   1.440       .  S
C1160      C1241   1.438       .  S
C1161      C1243   1.433       .  S
C1162      C1240   1.437       .  S
C1163      C1245   1.439       .  S
C1164      C1248   1.438       .  S
H1165      O1166   0.967       .  S
H1167      O1168   0.967       .  S
N1169      C1174   1.355       .  A
N1169      C1173   1.354       .  A
N1169      H1201   1.038       .  S
N1170      C1177   1.353       .  A
N1170      C1178   1.353       .  A
N1171      C1176   1.354       .  A
N1171      C1175   1.354       .  A
N1171      H1202   1.038       .  S
N1172      C1179   1.352       .  A
N1172      C1180   1.352       .  A
C1173      C1181   1.388       .  A
C1173      C1189   1.417       .  A
C1174      C1190   1.417       .  A
C1174      C1182   1.388       .  A
C1175      C1183   1.388       .  A
C1175      C1192   1.416       .  A
C1176      C1191   1.416       .  A
C1176      C1184   1.388       .  A
C1177      C1189   1.415       .  A
C1177      C1185   1.387       .  A
C1178      C1192   1.415       .  A
C1178      C1186   1.387       .  A
C1179      C1187   1.387       .  A
C1179      C1190   1.414       .  A
C1180      C1188   1.387       .  A
C1180      C1191   1.413       .  A
C1181      C1182   1.377       .  A
C1181      H1193   1.082       .  S
C1182      H1194   1.082       .  S
C1183      C1184   1.377       .  A
C1183      H1195   1.082       .  S
C1184      H1196   1.083       .  S
C1185      C1186   1.374       .  A
C1185      H1197   1.082       .  S
C1186      H1198   1.082       .  S
C1187      C1188   1.374       .  A
C1187      H1199   1.082       .  S
C1188      H1200   1.082       .  S
C1189      C1249   1.457       .  S
C1190      C1251   1.455       .  S
C1191      C1246   1.454       .  S
C1192      C1247   1.455       .  S
N1203      C1208   1.354       .  A
N1203      C1207   1.353       .  A
N1203      H1235   1.031       .  S
N1204      C1211   1.352       .  A
N1204      C1212   1.352       .  A
N1205      C1210   1.355       .  A
N1205      C1209   1.355       .  A
N1205      H1236   1.036       .  S
N1206      C1213   1.353       .  A
N1206      C1214   1.353       .  A
C1207      C1215   1.389       .  A
C1207      C1223   1.419       .  A
C1208      C1224   1.420       .  A
C1208      C1216   1.389       .  A
C1209      C1217   1.388       .  A
C1209      C1226   1.417       .  A
C1210      C1225   1.417       .  A
C1210      C1218   1.387       .  A
C1211      C1223   1.417       .  A
C1211      C1219   1.388       .  A
C1212      C1226   1.415       .  A
C1212      C1220   1.387       .  A
C1213      C1221   1.387       .  A
C1213      C1224   1.417       .  A
C1214      C1222   1.386       .  A
C1214      C1225   1.415       .  A
C1215      C1216   1.377       .  A
C1215      H1227   1.083       .  S
C1216      H1228   1.082       .  S
C1217      C1218   1.374       .  A
C1217      H1229   1.082       .  S
C1218      H1230   1.082       .  S
C1219      C1220   1.373       .  A
C1219      H1231   1.083       .  S
C1220      H1232   1.082       .  S
C1221      C1222   1.372       .  A
C1221      H1233   1.082       .  S
C1222      H1234   1.082       .  S
C1223      C1244   1.450       .  S
C1224      C1239   1.454       .  S
C1225      C1237   1.456       .  S
C1226      C1242   1.454       .  S
C1237      C1238   1.209       .  T
C1239      C1240   1.208       .  T
C1241      C1242   1.208       .  T
C1243      C1244   1.205       .  T
C1249      C1250   1.210       .  T
C1251      C1252   1.209       .  T
C1253      C1254   1.209       .  T
C1255      C1256   1.208       .  T
C1257      C1258   1.208       .  T
C1259      C1260   1.208       .  T
N1261      C1266   1.354       .  A
N1261      C1265   1.354       .  A
N1261      H1293   1.039       .  S
N1262      C1269   1.351       .  A
N1262      C1270   1.351       .  A
N1263      C1268   1.353       .  A
N1263      C1267   1.354       .  A
N1263      H1294   1.036       .  S
N1264      C1271   1.351       .  A
N1264      C1272   1.351       .  A
C1265      C1273   1.387       .  A
C1265      C1281   1.414       .  A
C1266      C1282   1.414       .  A
C1266      C1274   1.387       .  A
C1267      C1275   1.388       .  A
C1267      C1284   1.417       .  A
C1268      C1283   1.416       .  A
C1268      C1276   1.388       .  A
C1269      C1281   1.411       .  A
C1269      C1277   1.386       .  A
C1270      C1284   1.413       .  A
C1270      C1278   1.388       .  A
C1271      C1279   1.387       .  A
C1271      C1282   1.412       .  A
C1272      C1280   1.388       .  A
C1272      C1283   1.414       .  A
C1273      C1274   1.376       .  A
C1273      H1285   1.082       .  S
C1274      H1286   1.082       .  S
C1275      C1276   1.377       .  A
C1275      H1287   1.082       .  S
C1276      H1288   1.083       .  S
C1277      C1278   1.374       .  A
C1277      H1289   1.082       .  S
C1278      H1290   1.082       .  S
C1279      C1280   1.374       .  A
C1279      H1291   1.083       .  S
C1280      H1292   1.083       .  S
C1281      C1434   1.453       .  S
C1282      C1436   1.452       .  S
C1283      C1438   1.450       .  S
C1284      C1440   1.452       .  S
O1295      C1306   1.290       .  A
O1296      C1307   1.290       .  A
O1297      C1308   1.291       .  A
O1298      C1309   1.291       .  A
O1301      C1307   1.290       .  A
O1301     Eu1303   2.461   1_565  S
O1302      C1306   1.291       .  A
Eu1303     O1304   2.356   1_545  S
C1306      C1439   1.437       .  S
C1307      C1437   1.435       .  S
C1308      C1432   1.438       .  S
C1309      C1430   1.440       .  S
H1310      O1311   0.967       .  S
H1312      O1313   0.967       .  S
O1314      C1337   1.290       .  A
O1314     Eu1330   2.462   1_556  S
O1315      C1338   1.291       .  A
O1315     Eu1331   2.468   1_556  S
O1316      C1339   1.290       .  A
O1316     Eu1332   2.461   1_565  S
O1317      C1340   1.290       .  A
O1317     Eu1333   2.464   1_565  S
O1318      C1341   1.289       .  A
O1319      C1342   1.289       .  A
O1320      C1343   1.291       .  A
O1321      C1344   1.291       .  A
O1321     Eu1334   2.467       .  S
O1322      C1343   1.290       .  A
O1322     Eu1332   2.461   1_556  S
O1323      C1344   1.289       .  A
O1323     Eu1333   2.457   1_556  S
O1324      C1339   1.290       .  A
O1325      C1342   1.290       .  A
O1326      C1341   1.291       .  A
O1326     Eu1331   2.467   1_556  S
O1327      C1340   1.290       .  A
O1327     Eu1330   2.460       .  S
O1328      C1337   1.290       .  A
O1328     Eu1334   2.463   1_565  S
O1329      C1338   1.290       .  A
Eu1330     O1348   2.359   1_554  S
Eu1331     O1335   2.354   1_554  S
Eu1332     O1336   2.355   1_544  S
Eu1333     O1348   2.359   1_544  S
Eu1334     O1348   2.357   1_545  S
C1337      C1435   1.437       .  S
C1338      C1433   1.439       .  S
C1339      C1418   1.436       .  S
C1340      C1421   1.437       .  S
C1341      C1423   1.437       .  S
C1342      C1420   1.435       .  S
C1343      C1425   1.439       .  S
C1344      C1428   1.438       .  S
H1345      O1346   0.967       .  S
H1347      O1348   0.967       .  S
N1349      C1354   1.354       .  A
N1349      C1353   1.354       .  A
N1349      H1381   1.037       .  S
N1350      C1357   1.353       .  A
N1350      C1358   1.353       .  A
N1351      C1356   1.354       .  A
N1351      C1355   1.354       .  A
N1351      H1382   1.038       .  S
N1352      C1359   1.352       .  A
N1352      C1360   1.352       .  A
C1353      C1361   1.388       .  A
C1353      C1369   1.416       .  A
C1354      C1370   1.416       .  A
C1354      C1362   1.388       .  A
C1355      C1363   1.387       .  A
C1355      C1372   1.416       .  A
C1356      C1371   1.416       .  A
C1356      C1364   1.388       .  A
C1357      C1369   1.415       .  A
C1357      C1365   1.387       .  A
C1358      C1372   1.415       .  A
C1358      C1366   1.387       .  A
C1359      C1367   1.387       .  A
C1359      C1370   1.414       .  A
C1360      C1368   1.387       .  A
C1360      C1371   1.413       .  A
C1361      C1362   1.376       .  A
C1361      H1373   1.082       .  S
C1362      H1374   1.082       .  S
C1363      C1364   1.377       .  A
C1363      H1375   1.082       .  S
C1364      H1376   1.082       .  S
C1365      C1366   1.374       .  A
C1365      H1377   1.082       .  S
C1366      H1378   1.082       .  S
C1367      C1368   1.374       .  A
C1367      H1379   1.082       .  S
C1368      H1380   1.082       .  S
C1369      C1429   1.455       .  S
C1370      C1431   1.453       .  S
C1371      C1426   1.452       .  S
C1372      C1427   1.456       .  S
N1383      C1388   1.355   1_556  A
N1383      C1387   1.354   1_556  A
N1383      H1415   1.034       .  S
N1384      C1391   1.352   1_554  A
N1384      C1392   1.353   1_554  A
N1385      C1390   1.354   1_556  A
N1385      C1389   1.354   1_556  A
N1385      H1416   1.030       .  S
N1386      C1393   1.351       .  A
N1386      C1394   1.352       .  A
C1387      C1395   1.388       .  A
C1387      C1403   1.418   1_554  A
C1388      C1404   1.418   1_554  A
C1388      C1396   1.388       .  A
C1389      C1397   1.388       .  A
C1389      C1406   1.419       .  A
C1390      C1405   1.419   1_554  A
C1390      C1398   1.388       .  A
C1391      C1403   1.415       .  A
C1391      C1399   1.387       .  A
C1392      C1406   1.417   1_556  A
C1392      C1400   1.387       .  A
C1393      C1401   1.387       .  A
C1393      C1404   1.415       .  A
C1394      C1402   1.388       .  A
C1394      C1405   1.417       .  A
C1395      C1396   1.375       .  A
C1395      H1407   1.082       .  S
C1396      H1408   1.082       .  S
C1397      C1398   1.375       .  A
C1397      H1409   1.082       .  S
C1398      H1410   1.082       .  S
C1399      C1400   1.372       .  A
C1399      H1411   1.082       .  S
C1400      H1412   1.082       .  S
C1401      C1402   1.373       .  A
C1401      H1413   1.083       .  S
C1402      H1414   1.082       .  S
C1403      C1424   1.453       .  S
C1404      C1419   1.451   1_556  S
C1405      C1417   1.452   1_556  S
C1406      C1422   1.453       .  S
C1417      C1418   1.207       .  T
C1419      C1420   1.206       .  T
C1421      C1422   1.207       .  T
C1423      C1424   1.207       .  T
C1429      C1430   1.209       .  T
C1431      C1432   1.208       .  T
C1433      C1434   1.208       .  T
C1435      C1436   1.207       .  T
C1437      C1438   1.206       .  T
C1439      C1440   1.207       .  T
