geometry optimzed in LAMMPS
_audit_creation_date              2020-11-30 
_audit_creation_method            'lammps2cif' 
_symmetry_space_group_name_H-M    'P1' 
_symmetry_Int_Tables_number       1 
_symmetry_cell_setting            triclinic 
loop_ 
_symmetry_equiv_pos_as_xyz 
  x,y,z 
_cell_length_a                    22.77299252 
_cell_length_b                    22.70247228234899 
_cell_length_c                    22.941404858926283 
_cell_angle_alpha                 90.02810863997546 
_cell_angle_beta                  90.0202314147506 
_cell_angle_gamma                 89.97102817361083 
loop_ 
_atom_site_label 
_atom_site_type_symbol 
_atom_site_fract_x 
_atom_site_fract_y 
_atom_site_fract_z 
_atom_site_charge 
C1          C  0.31331702  0.33757711  0.14842381    -0.02000
C2          C  0.31583617  0.15874132  0.33134518    -0.02000
C3          C  0.17043506  0.16186894  0.15490249    -0.02000
C4          C  0.16514826  0.33421022  0.32182804    -0.02000
C5          C  0.32115484  0.15280678  0.65754587    -0.02000
C6          C  0.16753697  0.15712878  0.82157604    -0.02000
C7          C  0.16693300  0.32919675  0.65650307    -0.02000
C8          C  0.30948176  0.33954246  0.83248297    -0.02000
C9          C  0.36387605  0.36947780  0.12140029     0.42900
N10         N  0.39390132  0.42914333  0.05533862     0.01800
C11         C  0.63831050  0.42470536  0.88243594    -0.06100
H12         H  0.68373791  0.44841248  0.09820800     0.07300
C13         C  0.57088243  0.63792935  0.10015142    -0.06400
Co14       Co  0.49779846  0.38632895  0.99043965     0.74200
N15         N  0.60394532  0.43174632  0.05122735    -0.25600
Co16       Co  0.60283984  0.49767119  0.98951296     0.74100
C17         C  0.62697311  0.61849603  0.12464780     0.43000
N18         N  0.43010271  0.59997401  0.05897935     0.01400
N19         N  0.60278631  0.56169591  0.05393220     0.01500
N20         N  0.57487789  0.34862269  0.88732155    -0.46500
H21         H  0.43790082  0.30317940  0.09926298     0.07300
N22         N  0.56476502  0.38897674  0.05279803     0.01800
N23         N  0.59968262  0.56380497  0.92788149     0.01500
C24         C  0.61962538  0.62173738  0.85683616     0.43100
N25         N  0.39038758  0.55797591  0.05787940    -0.25100
C26         C  0.41437534  0.34849562  0.88744163    -0.06000
N27         N  0.35241849  0.42056823  0.09407167    -0.46200
N28         N  0.63857944  0.57394324  0.88634256    -0.46400
C29         C  0.35959435  0.37182064  0.86182518     0.42900
N30         N  0.56258950  0.38948256  0.92665097     0.01800
N31         N  0.38923088  0.56046901  0.93115100    -0.25100
N32         N  0.43271793  0.38618470  0.05400763    -0.25600
N33         N  0.42880723  0.60262932  0.93178085     0.01400
H34         H  0.31186607  0.54584528  0.87925259     0.07300
H35         H  0.53763457  0.67839629  0.87649689     0.07300
N36         N  0.60041198  0.43332960  0.92570700    -0.25600
N37         N  0.56022366  0.60085748  0.05631290    -0.25200
N38         N  0.39105712  0.43034267  0.92900717     0.01800
C39         C  0.62685829  0.36771794  0.11990219     0.43200
C40         C  0.35131822  0.56768271  0.10029265    -0.06500
N41         N  0.55753040  0.60340296  0.92931426    -0.25200
H42         H  0.54369081  0.67514782  0.11131255     0.07300
N43         N  0.57768335  0.34862847  0.09253771    -0.46500
H44         H  0.31194917  0.54216195  0.10781667     0.07300
C45         C  0.37152608  0.62592253  0.86137850     0.43000
C46         C  0.41695784  0.34552135  0.09358258    -0.06000
Co47       Co  0.39031812  0.49433361  0.99325373     0.73800
N48         N  0.41941840  0.63972587  0.09989160    -0.46200
C49         C  0.62213637  0.36796097  0.85703808     0.43300
N50         N  0.34815586  0.42188886  0.89133364    -0.46200
Co51       Co  0.49417028  0.60305259  0.99430107     0.73900
C52         C  0.56560882  0.64126139  0.88554478    -0.06500
C53         C  0.64480901  0.42199928  0.09155682    -0.06100
N54         N  0.43050254  0.38789136  0.92813518    -0.25600
N55         N  0.64435897  0.57138422  0.09308565    -0.46400
H56         H  0.67319932  0.45465296  0.87206883     0.07300
C57         C  0.35078652  0.57147568  0.88854793    -0.06500
Cl58       Cl  0.49628192  0.49529509  0.99188792    -0.49500
C59         C  0.37114965  0.62139807  0.12924463     0.43000
H60         H  0.43684158  0.30738862  0.87954071     0.07300
N61         N  0.41915443  0.64343226  0.89179663    -0.46200
C62         C  0.33164685  0.66248312  0.16242383    -0.02000
C63         C  0.18471297  0.83317910  0.14727206    -0.02000
C64         C  0.18178203  0.66244712  0.33966976    -0.02000
C65         C  0.32858253  0.83425163  0.32581057    -0.02000
C66         C  0.36833809  0.87453856  0.35941335     0.42900
N67         N  0.42918514  0.89614770  0.42777374     0.01800
C68         C  0.42440129  0.14652331  0.59975136    -0.06100
H69         H  0.44231654  0.19194864  0.38174210     0.07300
C70         C  0.64747949  0.07156786  0.38789035    -0.06400
Co71       Co  0.39334194  0.00340679  0.49228569     0.74200
N72         N  0.43546311  0.11068183  0.42946915    -0.25600
Co73       Co  0.50286026  0.10935319  0.49174656     0.74100
C74         C  0.63057698  0.12704626  0.36119526     0.43000
N75         N  0.60212823  0.93134953  0.42638917     0.01400
N76         N  0.56802298  0.10507527  0.42764109     0.01500
N77         N  0.35890336  0.07274933  0.59803535    -0.46500
H78         H  0.31116209  0.95556204  0.38011301     0.07300
N79         N  0.39571364  0.06861994  0.42947843     0.01800
N80         N  0.56991508  0.10518819  0.55383342     0.01500
C81         C  0.63019741  0.12460594  0.62337278     0.43100
N82         N  0.55914646  0.89263972  0.42675797    -0.25100
C83         C  0.35022736  0.92675971  0.59477180    -0.06000
N84         N  0.41680050  0.85573430  0.38806898    -0.46200
N85         N  0.58179764  0.14428166  0.59508421    -0.46400
C86         C  0.36754621  0.87101124  0.62131586     0.42900
N87         N  0.39834969  0.06649951  0.55667481     0.01800
N88         N  0.56087512  0.89208307  0.55378589    -0.25100
N89         N  0.39048500  0.93918893  0.42856572    -0.25600
N90         N  0.60433447  0.93030481  0.55227005     0.01400
H91         H  0.54233784  0.81786965  0.60798457     0.07300
H92         H  0.68168030  0.03849842  0.60613534     0.07300
N93         N  0.43780588  0.10881517  0.55644795    -0.25600
N94         N  0.60650849  0.06158760  0.42808746    -0.25200
N95         N  0.42986548  0.89456493  0.55485396     0.01800
C96         C  0.36578560  0.12743135  0.36183746     0.43200
C97         C  0.56765421  0.85446779  0.38335883    -0.06500
N98         N  0.60760654  0.06104568  0.55339995    -0.25200
H99         H  0.68646123  0.04518077  0.38117795     0.07300
N100        N  0.35375939  0.07733968  0.39091726    -0.46500
H101        H  0.53945854  0.81758787  0.37425703     0.07300
C102        C  0.62776881  0.87153349  0.62153997     0.43000
C103        C  0.35016484  0.92936801  0.38734170    -0.06000
Co104      Co  0.49485696  0.89259443  0.49093472     0.73800
N105        N  0.64171183  0.92026973  0.38561144    -0.46200
C106        C  0.37185817  0.12165593  0.62864188     0.43300
N107        N  0.41655284  0.85283090  0.59304463    -0.46200
Co108      Co  0.60619952  0.99601109  0.49004301     0.73900
C109        C  0.64624415  0.06850847  0.59643472    -0.06500
C110        C  0.41983949  0.15073905  0.38902459    -0.06100
N111        N  0.39122106  0.93764117  0.55459211    -0.25600
N112        N  0.58171515  0.14615788  0.38904265    -0.46400
H113        H  0.44763248  0.18704786  0.60832382     0.07300
C114        C  0.57080721  0.85408682  0.59710849    -0.06500
Cl115      Cl  0.49931732  0.00032017  0.49125697    -0.49500
C116        C  0.62247244  0.87285019  0.35545861     0.43000
H117        H  0.31118817  0.95288998  0.60183089     0.07300
N118        N  0.64587836  0.91884037  0.59092840    -0.46200
C119        C  0.66084353  0.32819434  0.82085810    -0.02000
C120        C  0.84007142  0.33386918  0.67345230    -0.02000
C121        C  0.65680855  0.15266233  0.67722269    -0.02000
C122        C  0.83230339  0.16236129  0.82403225    -0.02000
C123        C  0.33426426  0.66724941  0.82655962    -0.02000
C124        C  0.32745494  0.83128756  0.65566302    -0.02000
C125        C  0.18461620  0.65524134  0.64870067    -0.02000
C126        C  0.18347109  0.83438319  0.83296643    -0.02000
C127        C  0.66301383  0.83401275  0.32071439    -0.02000
C128        C  0.80675664  0.65502458  0.33970105    -0.02000
C129        C  0.66822851  0.65456673  0.16123083    -0.02000
C130        C  0.81598289  0.83047868  0.15180801    -0.02000
C131        C  0.65823228  0.65663775  0.81640806    -0.02000
C132        C  0.80996265  0.65274380  0.65243074    -0.02000
C133        C  0.66762482  0.83651171  0.66093024    -0.02000
C134        C  0.81009326  0.83688411  0.83091046    -0.02000
C135        C  0.86886547  0.12735052  0.12000212     0.42900
N136        N  0.89636669  0.05781924  0.06099808     0.01800
C137        C  0.14559131  0.88802889  0.05755850    -0.06100
H138        H  0.18321869  0.10601527  0.03403271     0.07300
C139        C  0.07049650  0.09549185  0.84040409    -0.06400
Co140      Co  0.00238328  0.99230415  0.10114417     0.74200
N141        N  0.10504426  0.05675650  0.05226200    -0.25600
Co142      Co  0.10282857  0.99301738  0.98702991     0.74100
C143        C  0.12525403  0.12321958  0.85935881     0.43000
N144        N  0.92836385  0.05556758  0.88716286     0.01400
N145        N  0.10001585  0.05658669  0.92126314     0.01500
N146        N  0.08656044  0.88879850  0.13624557    -0.46500
H147        H  0.94611747  0.10583244  0.18227909     0.07300
N148        N  0.06806352  0.05647742  0.09652523     0.01800
N149        N  0.09983629  0.92835441  0.92344437     0.01500
C150        C  0.13191014  0.86142236  0.86469084     0.43100
N151        N  0.89050336  0.05681402  0.93062535    -0.25100
C152        C  0.91983230  0.88838976  0.14293520    -0.06000
N153        N  0.85554679  0.09801910  0.07035387    -0.46200
N154        N  0.14280524  0.89066914  0.91456065    -0.46400
C155        C  0.86626509  0.86003464  0.11995121     0.42900
N156        N  0.06905657  0.92783792  0.09640617     0.01800
N157        N  0.89002558  0.92887844  0.93176301    -0.25100
N158        N  0.93643249  0.05686894  0.10241993    -0.25600
N159        N  0.92626933  0.92774213  0.88696803     0.01400
H160        H  0.80925747  0.88463288  0.95033408     0.07300
H161        H  0.05587035  0.88023865  0.80011106     0.07300
N162        N  0.10463890  0.92908554  0.05114804    -0.25600
N163        N  0.05848577  0.05508546  0.88124401    -0.25200
N164        N  0.89580693  0.92830889  0.06089099     0.01800
C165        C  0.13003486  0.12491707  0.11747645     0.43200
C166        C  0.85138242  0.09976770  0.92039772    -0.06500
N167        N  0.06007760  0.92755043  0.88174728    -0.25200
H168        H  0.04583744  0.10209922  0.80065043     0.07300
N169        N  0.08215825  0.09565696  0.13713049    -0.46500
H170        H  0.81336900  0.10922583  0.94701262     0.07300
C171        C  0.85967759  0.86331636  0.86625174     0.43000
C172        C  0.92263095  0.09855244  0.14201837    -0.06000
Co173      Co  0.89252830  0.99304704  0.99629885     0.73800
N174        N  0.91665458  0.09520911  0.84654650    -0.46200
C175        C  0.13404761  0.86023042  0.11357927     0.43300
N176        N  0.85418657  0.88897759  0.06992762    -0.46200
Co177      Co  0.99312410  0.99112820  0.88303975     0.73900
C178        C  0.07705984  0.88741631  0.84167903    -0.06500
C179        C  0.14559372  0.09819843  0.06156855    -0.06100
N180        N  0.93553643  0.92872998  0.10267066    -0.25600
N181        N  0.14158221  0.09540813  0.90894090    -0.46400
H182        H  0.18286390  0.88241932  0.02889265     0.07300
C183        C  0.84767496  0.88958100  0.92304990    -0.06500
Cl184      Cl  0.99767588  0.99235608  0.99186534    -0.49500
C185        C  0.86942575  0.12610093  0.86487385     0.43000
H186        H  0.94146118  0.88219959  0.18440371     0.07300
N187        N  0.90817176  0.89104528  0.84535639    -0.46200
C188        C  0.67094992  0.16552787  0.32663064    -0.02000
C189        C  0.81935794  0.15715284  0.15333800    -0.02000
C190        C  0.66619849  0.33072261  0.15725755    -0.02000
C191        C  0.81273961  0.34353711  0.33204490    -0.02000
C192        C  0.12955306  0.36667039  0.61625926     0.42900
N193        N  0.06099297  0.42823172  0.59400661     0.01800
C194        C  0.89145728  0.43108484  0.34421358    -0.06100
H195        H  0.11211892  0.46089797  0.30967706     0.07300
C196        C  0.10042094  0.65296869  0.42407306    -0.06400
Co197      Co  0.99663144  0.39179003  0.48658421     0.74200
N198        N  0.06051184  0.44116961  0.38467383    -0.25600
Co199      Co  0.99673218  0.50705199  0.38667443     0.74100
C200        C  0.12739777  0.63629194  0.36837362     0.43000
N201        N  0.06003534  0.60473326  0.56388140     0.01400
N202        N  0.05979559  0.57380471  0.39079765     0.01500
N203        N  0.89347951  0.35571644  0.40836621    -0.46500
H204        H  0.11203597  0.31408144  0.53142768     0.07300
N205        N  0.05920394  0.39622868  0.42102295     0.01800
N206        N  0.93244141  0.57210151  0.39097734     0.01500
C207        C  0.86040689  0.62963243  0.37021333     0.43100
N208        N  0.06152446  0.55990763  0.60035335    -0.25100
C209        C  0.89580943  0.34620526  0.56934320    -0.06000
N210        N  0.10014142  0.41507479  0.63459965    -0.46200
N211        N  0.89090618  0.58209871  0.35184566    -0.46400
C212        C  0.86921819  0.36703854  0.62420595     0.42900
N213        N  0.93306358  0.39638808  0.42145207     0.01800
N214        N  0.93448510  0.56010211  0.60292302    -0.25100
N215        N  0.06089226  0.39001655  0.55083643    -0.25600
N216        N  0.93277335  0.60347593  0.56488835     0.01400
H217        H  0.88521704  0.54050740  0.68000860     0.07300
H218        H  0.87597041  0.68405458  0.45424883     0.07300
N219        N  0.93333627  0.44048986  0.38400899    -0.25600
N220        N  0.05883689  0.61246049  0.43368792    -0.25200
N221        N  0.93375281  0.42965359  0.59418079     0.01800
C222        C  0.12606745  0.37295829  0.35909452     0.43200
C223        C  0.10577697  0.56784488  0.63776805    -0.06500
N224        N  0.93144279  0.61020719  0.43437245    -0.25200
H225        H  0.10898394  0.69026822  0.45203297     0.07300
N226        N  0.09665451  0.35407154  0.40660782    -0.46500
H227        H  0.11708062  0.53763994  0.67233567     0.07300
C228        C  0.86481588  0.62465570  0.62672720     0.43000
C229        C  0.10309245  0.35023279  0.56025589    -0.06000
Co230      Co  0.99779199  0.49434818  0.59857331     0.73800
N231        N  0.10085545  0.64466218  0.57535963    -0.46200
C232        C  0.86588423  0.37370079  0.35923245     0.43300
N233        N  0.89673414  0.41809178  0.63669868    -0.46200
Co234      Co  0.99564647  0.60881457  0.49926934     0.73900
C235        C  0.88693874  0.64778725  0.42575085    -0.06500
C236        C  0.10235042  0.43141964  0.34506871    -0.06100
N237        N  0.93407652  0.38858704  0.55355723    -0.25600
N238        N  0.10027348  0.58614005  0.35115225    -0.46400
H239        H  0.88213536  0.46023960  0.30823740     0.07300
C240        C  0.89307905  0.56912631  0.64331237    -0.06500
Cl241      Cl  0.99667052  0.50053776  0.49273329    -0.49500
C242        C  0.13113882  0.62514771  0.62229061     0.43000
H243        H  0.89061480  0.30455230  0.54715959     0.07300
N244        N  0.89147853  0.64262694  0.57707618    -0.46200
C245        C  0.76165685  0.39264225  0.18830131    -0.20900
C246        C  0.70293795  0.37558981  0.19769641    -0.08900
C247        C  0.68138660  0.40166289  0.24987077     0.30000
C248        C  0.71857459  0.40476373  0.29938599    -0.20900
C249        C  0.77849319  0.38998077  0.29309360    -0.08900
C250        C  0.79987775  0.40044669  0.23563410     0.30000
F251        F  0.85824256  0.40271666  0.22409625    -0.19400
H252        H  0.77771047  0.40426455  0.14615621     0.18300
H253        H  0.70117613  0.41964734  0.34048673     0.18300
F254        F  0.62816496  0.42844157  0.25114863    -0.19400
C255        C  0.72341302  0.18597605  0.09323433    -0.20900
C256        C  0.78327576  0.19384853  0.10662090    -0.08900
C257        C  0.80405847  0.25113699  0.09259130     0.30000
C258        C  0.76554970  0.29944697  0.09911294    -0.24900
C259        C  0.70586600  0.29033208  0.11424000    -0.08900
C260        C  0.68639237  0.23601685  0.09046089     0.30000
F261        F  0.63608071  0.23338841  0.05910190    -0.19400
H262        H  0.70645442  0.14337613  0.08128345     0.18300
H263        H  0.78196016  0.34159356  0.08641949     0.18300
F264        F  0.86241168  0.26136075  0.08612391    -0.19400
C265        C  0.77965450  0.22714445  0.22235269    -0.20900
C266        C  0.83221080  0.20577685  0.19955222    -0.08900
C267        C  0.88521567  0.23089704  0.22098883     0.30000
C268        C  0.88263618  0.27544118  0.26519534    -0.20900
C269        C  0.82732641  0.29484854  0.28657126    -0.08900
C270        C  0.77725935  0.26890888  0.26291758     0.30000
F271        F  0.72320629  0.28548614  0.27856715    -0.19400
H272        H  0.73759618  0.21085087  0.20774352     0.18300
H273        H  0.92278447  0.29486371  0.28152371     0.18300
F274        F  0.93802804  0.21423680  0.19949007    -0.19400
C275        C  0.60546027  0.30365209  0.25382093    -0.20900
C276        C  0.62582662  0.28967874  0.19728251    -0.08900
C277        C  0.61017661  0.23127514  0.18363102     0.30000
C278        C  0.61531561  0.18807883  0.22676438    -0.20900
C279        C  0.63107730  0.20431199  0.28403466    -0.08900
C280        C  0.60625890  0.25996555  0.29738944     0.30000
F281        F  0.56971293  0.26657708  0.34336751    -0.19400
H282        H  0.58232835  0.34387832  0.26242943     0.18300
H283        H  0.59648078  0.14587114  0.21760187     0.18300
F284        F  0.57258808  0.22049214  0.13914497    -0.19400
C285        C  0.76419723  0.20041477  0.39027829    -0.20900
C286        C  0.70538780  0.20752212  0.37228726    -0.08900
C287        C  0.68302423  0.26172741  0.39409554     0.30000
C288        C  0.71918462  0.31258084  0.39409820    -0.20900
C289        C  0.77933675  0.30665915  0.38064378    -0.08900
C290        C  0.80160595  0.24974807  0.39503610     0.30000
F291        F  0.86007471  0.24028327  0.40128118    -0.19400
H292        H  0.77991474  0.15882588  0.40599064     0.18300
H293        H  0.70113534  0.35438848  0.40724038     0.18300
F294        F  0.63226469  0.26282074  0.42478237    -0.19400
C295        C  0.77298661  0.11065007  0.29661706    -0.20900
C296        C  0.71246873  0.12273055  0.28781961    -0.08900
C297        C  0.69246130  0.09286777  0.23705735     0.30000
C298        C  0.72851935  0.09189517  0.18665235    -0.20900
C299        C  0.78805513  0.10821014  0.19168851    -0.08900
C300        C  0.81024517  0.09909366  0.24892462     0.30000
F301        F  0.86880355  0.09536896  0.25887294    -0.19400
H302        H  0.79237165  0.10578785  0.33845240     0.18300
H303        H  0.71123187  0.07549094  0.14602563     0.18300
F304        F  0.64117953  0.06244856  0.23749500    -0.19400
C305        C  0.67884594  0.90233404  0.75806341    -0.20900
C306        C  0.70029200  0.88342625  0.70315333    -0.08900
C307        C  0.75731968  0.90617931  0.69503790     0.30000
C308        C  0.79679138  0.90692032  0.74296723    -0.20900
C309        C  0.77629763  0.88873676  0.79894028    -0.08900
C310        C  0.71632054  0.90131493  0.80721864     0.30000
F311        F  0.69674832  0.92210200  0.85900879    -0.19400
H312        H  0.63489219  0.91941125  0.76248702     0.18300
H313        H  0.84331909  0.91166574  0.73458578     0.18300
F314        F  0.77307747  0.93039482  0.64318391    -0.19400
C315        C  0.72365398  0.69640769  0.58507817    -0.20900
C316        C  0.78234996  0.69637833  0.60501067    -0.08900
C317        C  0.80834299  0.75306292  0.60078009     0.30000
C318        C  0.77383936  0.80196376  0.61678896    -0.20900
C319        C  0.71136397  0.79796798  0.62035588    -0.08900
C320        C  0.69092603  0.74978026  0.58635588     0.30000
F321        F  0.64390058  0.75619122  0.55068259    -0.19400
H322        H  0.70530765  0.65823947  0.56411446     0.18300
H323        H  0.79955686  0.83881166  0.62859480     0.18300
F324        F  0.86764047  0.75918172  0.60238896    -0.19400
C325        C  0.87702855  0.71822947  0.72371157    -0.20900
C326        C  0.82233940  0.69610738  0.70339789    -0.08900
C327        C  0.77152505  0.72292140  0.72433655     0.30000
C328        C  0.77293884  0.77227286  0.75601017    -0.20900
C329        C  0.82457724  0.79407086  0.78020250    -0.08900
C330        C  0.87820514  0.76673351  0.76348567     0.30000
F331        F  0.93020044  0.78495633  0.78581146    -0.19400
H332        H  0.91780162  0.69909801  0.70861447     0.18300
H333        H  0.73057429  0.78946177  0.76835897     0.18300
F334        F  0.71828455  0.70626163  0.70650870    -0.19400
C335        C  0.59887110  0.69113126  0.72212853    -0.20900
C336        C  0.61738451  0.70087250  0.77981868    -0.08900
C337        C  0.60354550  0.75938155  0.79630358     0.30000
C338        C  0.60763622  0.80430417  0.75492651    -0.20900
C339        C  0.62767183  0.79207161  0.69821221    -0.08900
C340        C  0.60589321  0.73582021  0.68031520     0.30000
F341        F  0.58254095  0.72535608  0.62732243    -0.19400
H342        H  0.57490853  0.65210690  0.71038874     0.18300
H343        H  0.58532052  0.84482687  0.76441474     0.18300
F344        F  0.56999374  0.77083765  0.84358570    -0.19400
C345        C  0.67142961  0.59311510  0.71760325    -0.20900
C346        C  0.69035599  0.60939182  0.77441892    -0.08900
C347        C  0.74570989  0.58435401  0.78543071     0.30000
C348        C  0.78817200  0.58474338  0.74050729    -0.20900
C349        C  0.77170667  0.60338084  0.68324311    -0.08900
C350        C  0.71210692  0.59236622  0.67095080     0.30000
F351        F  0.69475176  0.57466318  0.61731455    -0.19400
H352        H  0.62702207  0.57897659  0.70976566     0.18300
H353        H  0.83374876  0.58111133  0.75313323     0.18300
F354        F  0.75822867  0.55981888  0.83799647    -0.19400
C355        C  0.76428551  0.68855024  0.86295751    -0.20900
C356        C  0.70223772  0.69529850  0.85660404    -0.08900
C357        C  0.68244344  0.74496888  0.88904425     0.30000
C358        C  0.71706407  0.79675835  0.89051434    -0.20900
C359        C  0.77657742  0.79355514  0.87426510    -0.08900
C360        C  0.79997534  0.73605657  0.88029351     0.30000
F361        F  0.85899874  0.72784490  0.88293321    -0.19400
H362        H  0.78869457  0.65007524  0.85355626     0.18300
H363        H  0.69904877  0.83630597  0.90902818     0.18300
F364        F  0.63251019  0.74269901  0.92092877    -0.19400
C365        C  0.72554869  0.79259486  0.08733599    -0.20900
C366        C  0.78461049  0.78897821  0.10549218    -0.08900
C367        C  0.80855838  0.73169949  0.09787661     0.30000
C368        C  0.77207726  0.68276546  0.10889299    -0.20900
C369        C  0.71070564  0.69039197  0.11730003    -0.08900
C370        C  0.69128621  0.74049559  0.08594859     0.30000
F371        F  0.64373169  0.73706452  0.05050469    -0.19400
H372        H  0.70819036  0.83253323  0.06900762     0.18300
H373        H  0.79291581  0.64092686  0.10630457     0.18300
F374        F  0.86758393  0.72366573  0.09573842    -0.19400
C375        C  0.71342883  0.59096741  0.30955629    -0.20900
C376        C  0.77378873  0.60444411  0.30443967    -0.08900
C377        C  0.79690581  0.58792729  0.24893251     0.30000
C378        C  0.76024007  0.59097763  0.19945076    -0.20900
C379        C  0.70157295  0.60988282  0.20495639    -0.08900
C380        C  0.67805220  0.58945477  0.25860195     0.30000
F381        F  0.62512196  0.56213067  0.26016966    -0.19400
H382        H  0.69463823  0.57864789  0.35071358     0.18300
H383        H  0.77635001  0.57362396  0.15899073     0.18300
F384        F  0.85549818  0.58183062  0.24035012    -0.19400
C385        C  0.87744550  0.71812342  0.26969332    -0.20900
C386        C  0.82182737  0.69899020  0.29020236    -0.08900
C387        C  0.77213785  0.72311783  0.26428208     0.30000
C388        C  0.77501411  0.76484261  0.22377659    -0.20900
C389        C  0.82797159  0.78579039  0.20166112    -0.08900
C390        C  0.88066535  0.76111572  0.22430636     0.30000
F391        F  0.93371687  0.77569081  0.20203156    -0.19400
H392        H  0.91738014  0.69979884  0.28770617     0.18300
H393        H  0.73327008  0.78026358  0.20748520     0.18300
F394        F  0.71816660  0.70741492  0.28054053    -0.19400
C395        C  0.61040411  0.80340142  0.22206249    -0.20900
C396        C  0.62371207  0.79131506  0.28056009    -0.08900
C397        C  0.60205963  0.73424688  0.29502400     0.30000
C398        C  0.60436333  0.68929355  0.25279071    -0.20900
C399        C  0.62976119  0.70090760  0.19785190    -0.08900
C400        C  0.61439249  0.75890603  0.18018395     0.30000
F401        F  0.58617870  0.76949995  0.12947337    -0.19400
H402        H  0.58848947  0.84360100  0.21014508     0.18300
H403        H  0.58230099  0.64871322  0.26185083     0.18300
F404        F  0.56737399  0.72463792  0.34189187    -0.19400
C405        C  0.68382463  0.89907417  0.22521278    -0.20900
C406        C  0.70273916  0.87652806  0.27978634    -0.08900
C407        C  0.76188539  0.89306932  0.28950544     0.30000
C408        C  0.80126930  0.89579804  0.24197023    -0.20900
C409        C  0.78118792  0.88066167  0.18521539    -0.08900
C410        C  0.72173264  0.89556691  0.17630901     0.30000
F411        F  0.70297598  0.91522937  0.12383917    -0.19400
H412        H  0.64024141  0.91687656  0.21997043     0.18300
H413        H  0.84774369  0.90020701  0.25085106     0.18300
F414        F  0.77546973  0.92639322  0.33644593    -0.19400
C415        C  0.67690174  0.74353439  0.39352802    -0.20900
C416        C  0.69965547  0.79509373  0.36687371    -0.08900
C417        C  0.75909430  0.80332136  0.38297011     0.30000
C418        C  0.79550273  0.75412044  0.39246896    -0.20900
C419        C  0.77268344  0.69644859  0.38420366    -0.08900
C420        C  0.71254961  0.69255066  0.39878789     0.30000
F421        F  0.69044077  0.64374078  0.42450662    -0.19400
H422        H  0.63271825  0.74261731  0.40984117     0.18300
H423        H  0.84234672  0.76161063  0.39517760     0.18300
F424        F  0.77679025  0.85446114  0.40712976    -0.19400
C425        C  0.22220179  0.72839046  0.71612357    -0.20900
C426        C  0.17080755  0.70408074  0.69405832    -0.08900
C427        C  0.11669906  0.72217842  0.71930872     0.30000
C428        C  0.11700134  0.76366407  0.76612484    -0.20900
C429        C  0.17120490  0.78564827  0.78743708    -0.08900
C430        C  0.22260595  0.76457578  0.76176981     0.30000
F431        F  0.27576811  0.78222282  0.77920803    -0.19400
H432        H  0.26475243  0.71539014  0.69994897     0.18300
H433        H  0.07593204  0.77772263  0.78512387     0.18300
F434        F  0.06498334  0.69957867  0.70046237    -0.19400
C435        C  0.23179247  0.79820377  0.59438146    -0.20900
C436        C  0.29147643  0.79110873  0.60959859    -0.08900
C437        C  0.31337696  0.73800694  0.58505115     0.30000
C438        C  0.27796013  0.68653882  0.58630265    -0.20900
C439        C  0.21769658  0.69189172  0.59973366    -0.08900
C440        C  0.19507550  0.74890023  0.58646309     0.30000
F441        F  0.13641230  0.75841405  0.58218457    -0.19400
H442        H  0.21349977  0.84010628  0.58470573     0.18300
H443        H  0.29670630  0.64458502  0.57458333     0.18300
F444        F  0.36574412  0.73717136  0.55682037    -0.19400
C445        C  0.30790298  0.90005992  0.74818471    -0.20900
C446        C  0.28683658  0.87294152  0.69652882    -0.08900
C447        C  0.22655534  0.88731602  0.68852504     0.30000
C448        C  0.18948669  0.89331027  0.73759693    -0.20900
C449        C  0.21280963  0.88441452  0.79430980    -0.08900
C450        C  0.27172696  0.90317047  0.79834267     0.30000
F451        F  0.28932974  0.93656700  0.84397940    -0.19400
H452        H  0.35036861  0.92060404  0.74912861     0.18300
H453        H  0.14251624  0.89535942  0.73074761     0.18300
F454        F  0.20880887  0.91557628  0.63967249    -0.19400
C455        C  0.23207682  0.61581501  0.79298624    -0.20900
C456        C  0.29286110  0.62716277  0.78526503    -0.08900
C457        C  0.31396246  0.59746951  0.73470155     0.30000
C458        C  0.27855454  0.59530744  0.68390553    -0.20900
C459        C  0.21844431  0.60910468  0.68844596    -0.08900
C460        C  0.19608108  0.60043411  0.74575499     0.30000
F461        F  0.13739244  0.59807448  0.75579574    -0.19400
H462        H  0.20940480  0.61860851  0.83303611     0.18300
H463        H  0.29699713  0.58000478  0.64337539     0.18300
F464        F  0.36557002  0.56785010  0.73570971    -0.19400
C465        C  0.31962083  0.76282728  0.89302932    -0.20900
C466        C  0.29991420  0.70715270  0.87335228    -0.08900
C467        C  0.24317758  0.69600539  0.89532141     0.30000
C468        C  0.20194872  0.74257565  0.89689904    -0.20900
C469        C  0.22051125  0.80015615  0.88081449    -0.08900
C470        C  0.28002476  0.81070362  0.89441890     0.30000
F471        F  0.29739497  0.86242806  0.91791613    -0.19400
H472        H  0.36395264  0.76877809  0.90829786     0.18300
H473        H  0.15577607  0.73239798  0.90175930     0.18300
F474        F  0.23074412  0.64404096  0.92193823    -0.19400
C475        C  0.39443630  0.76558650  0.79677313    -0.20900
C476        C  0.37648030  0.70673590  0.78617046    -0.08900
C477        C  0.39245232  0.69085596  0.72915587     0.30000
C478        C  0.38472167  0.73180581  0.68412215    -0.20900
C479        C  0.36745618  0.79033555  0.69679784    -0.08900
C480        C  0.39182549  0.80743818  0.75121489     0.30000
F481        F  0.42327091  0.85775527  0.75664780    -0.19400
H482        H  0.41710820  0.77739169  0.83622174     0.18300
H483        H  0.40407540  0.72066046  0.64312879     0.18300
F484        F  0.43158634  0.64669311  0.72065663    -0.19400
C485        C  0.69122319  0.08864497  0.76898526    -0.20900
C486        C  0.69687572  0.10552656  0.70997818    -0.08900
C487        C  0.75479939  0.09631633  0.68819360     0.30000
C488        C  0.80273915  0.10367373  0.72601080    -0.20900
C489        C  0.79396487  0.11673980  0.78559006    -0.08900
C490        C  0.74153944  0.08944654  0.80559254     0.30000
F491        F  0.74030468  0.06051504  0.85729368    -0.19400
H492        H  0.65025468  0.07266569  0.78592188     0.18300
H493        H  0.84486920  0.09456831  0.70817620     0.18300
F494        F  0.76610824  0.09603926  0.63012662    -0.19400
C495        C  0.77153813  0.26311012  0.71232427    -0.20900
C496        C  0.79383661  0.28562697  0.66038844    -0.08900
C497        C  0.76836180  0.26549760  0.60741386     0.30000
C498        C  0.72287043  0.22230422  0.60928126    -0.20900
C499        C  0.70215769  0.20159806  0.66388011    -0.08900
C500        C  0.72699969  0.22541920  0.71402314     0.30000
F501        F  0.70990797  0.20892658  0.76721965    -0.19400
H502        H  0.78728398  0.27767939  0.75433078     0.18300
H503        H  0.70423175  0.20575350  0.56910096     0.18300
F504        F  0.78491052  0.28786340  0.55530159    -0.19400
C505        C  0.90153602  0.30673471  0.76793357    -0.20900
C506        C  0.88890679  0.29841020  0.70827114    -0.08900
C507        C  0.90233670  0.24032014  0.68923075     0.30000
C508        C  0.89564011  0.19299023  0.72867043    -0.20900
C509        C  0.87647836  0.20341215  0.78647048    -0.08900
C510        C  0.89946995  0.25792075  0.80632122     0.30000
F511        F  0.92929831  0.26071260  0.85730995    -0.19400
H512        H  0.91727310  0.34860109  0.78362877     0.18300
H513        H  0.91102830  0.15058641  0.71514398     0.18300
F514        F  0.90921812  0.22820636  0.63176817    -0.19400
C515        C  0.59413175  0.23207401  0.80595327    -0.20900
C516        C  0.61697397  0.28603008  0.78438747    -0.08900
C517        C  0.59745119  0.29469821  0.72652109     0.30000
C518        C  0.59288821  0.24561189  0.68878661    -0.20900
C519        C  0.60715857  0.18842727  0.71027966    -0.08900
C520        C  0.59279688  0.18176200  0.76960320     0.30000
F521        F  0.56991794  0.13075427  0.78995645    -0.19400
H522        H  0.57690388  0.22895076  0.84935888     0.18300
H523        H  0.58815103  0.25350666  0.64250519     0.18300
F524        F  0.56892189  0.34498762  0.71168709    -0.19400
C525        C  0.73168823  0.18791255  0.88081460    -0.20900
C526        C  0.78883857  0.20345190  0.86145263    -0.08900
C527        C  0.80223790  0.26063602  0.88180814     0.30000
C528        C  0.75774724  0.30365809  0.88235895    -0.20900
C529        C  0.70029032  0.28915008  0.86467281    -0.08900
C530        C  0.68748237  0.23137209  0.88400121     0.30000
F531        F  0.64134298  0.22157438  0.92004011    -0.19400
H532        H  0.72229132  0.14583166  0.89958238     0.18300
H533        H  0.76468607  0.34218824  0.90871858     0.18300
F534        F  0.84760144  0.26843087  0.91910700    -0.19400
C535        C  0.69568393  0.38158568  0.72113567    -0.20900
C536        C  0.70383212  0.36892635  0.78125568    -0.08900
C537        C  0.75783837  0.39450477  0.80146109     0.30000
C538        C  0.80728268  0.39624970  0.76479822    -0.20900
C539        C  0.80111131  0.38123733  0.70605175    -0.08900
C540        C  0.74394490  0.39210058  0.68416944     0.30000
F541        F  0.73465827  0.39642207  0.62587879    -0.19400
H542        H  0.65393903  0.38496885  0.70113382     0.18300
H543        H  0.84864258  0.41154612  0.78176248     0.18300
F544        F  0.76358402  0.42052645  0.85413447    -0.19400
C545        C  0.19615580  0.75854483  0.39787347    -0.20900
C546        C  0.21652076  0.70022969  0.38635900    -0.08900
C547        C  0.27627274  0.69274523  0.40022036     0.30000
C548        C  0.31379645  0.74225426  0.39754454    -0.20900
C549        C  0.29307890  0.79574949  0.37314939    -0.08900
C550        C  0.23530478  0.80638478  0.39220719     0.30000
F551        F  0.22394183  0.85553636  0.42381383    -0.19400
H552        H  0.14977258  0.76817836  0.40132701     0.18300
H553        H  0.35729514  0.73917833  0.41538095     0.18300
F554        F  0.29575818  0.64213410  0.42468443    -0.19400
C555        C  0.11644406  0.76812379  0.21818766    -0.20900
C556        C  0.17111482  0.78697463  0.19523369    -0.08900
C557        C  0.22204501  0.76551215  0.22171022     0.30000
C558        C  0.22099770  0.73093973  0.26857373    -0.20900
C559        C  0.16910697  0.70939878  0.29208451    -0.08900
C560        C  0.11532427  0.72856644  0.26673240     0.30000
F561        F  0.06310091  0.70899625  0.28738587    -0.19400
H562        H  0.07573041  0.78366974  0.19939955     0.18300
H563        H  0.26332501  0.71734860  0.28499927     0.18300
F564        F  0.27557014  0.78150328  0.20395056    -0.19400
C565        C  0.19160042  0.89595084  0.23935544    -0.20900
C566        C  0.21542798  0.88430869  0.18358536    -0.08900
C567        C  0.27510336  0.90089409  0.17999416     0.30000
C568        C  0.31027837  0.89954005  0.23107598    -0.20900
C569        C  0.28806943  0.87438555  0.28328771    -0.08900
C570        C  0.22705462  0.88779490  0.28919219     0.30000
F571        F  0.20388228  0.90719585  0.33952056    -0.19400
H572        H  0.14448697  0.89854389  0.24522928     0.18300
H573        H  0.35409825  0.91733502  0.22953246     0.18300
F574        F  0.29556555  0.92912268  0.13225061    -0.19400
C575        C  0.38702229  0.69017998  0.26091527    -0.20900
C576        C  0.37212706  0.70358918  0.20279319    -0.08900
C577        C  0.39404530  0.76035462  0.18841073     0.30000
C578        C  0.39148362  0.80541526  0.23079663    -0.20900
C579        C  0.36944439  0.79208140  0.28693182    -0.08900
C580        C  0.38811836  0.73497598  0.30287208     0.30000
F581        F  0.42495166  0.72762837  0.34874720    -0.19400
H582        H  0.40722144  0.64895305  0.27186554     0.18300
H583        H  0.41144656  0.84722073  0.22120372     0.18300
F584        F  0.43053964  0.76788821  0.14238808    -0.19400
C585        C  0.22734708  0.61454617  0.19732229    -0.20900
C586        C  0.28892236  0.62353898  0.20392920    -0.08900
C587        C  0.30906787  0.59523922  0.25552813     0.30000
C588        C  0.27374289  0.59676161  0.30657527    -0.20900
C589        C  0.21397159  0.61278381  0.30213933    -0.08900
C590        C  0.19113766  0.60214916  0.24549725     0.30000
F591        F  0.13227385  0.59970467  0.23645038    -0.19400
H592        H  0.20414031  0.61680444  0.15749141     0.18300
H593        H  0.29158998  0.58095005  0.34702855     0.18300
F594        F  0.36058100  0.56517890  0.25597388    -0.19400
C595        C  0.31897508  0.75525383  0.09174440    -0.20900
C596        C  0.29804204  0.70106375  0.11406380    -0.08900
C597        C  0.24113887  0.69011036  0.09247551     0.30000
C598        C  0.20097155  0.73742919  0.08843191    -0.20900
C599        C  0.22090138  0.79529075  0.10163974    -0.08900
C600        C  0.28049492  0.80382170  0.08754484     0.30000
F601        F  0.29836609  0.85312821  0.05970664    -0.19400
H602        H  0.36281703  0.75901464  0.07494899     0.18300
H603        H  0.15458116  0.72809853  0.08392509     0.18300
F604        F  0.22780682  0.63727166  0.06804914    -0.19400
C605        C  0.29577998  0.40235991  0.73981410    -0.20900
C606        C  0.27405518  0.38716397  0.79599124    -0.08900
C607        C  0.21364784  0.39953776  0.80215207     0.30000
C608        C  0.17736110  0.39641936  0.75217582    -0.20900
C609        C  0.20079590  0.37476598  0.69893239    -0.08900
C610        C  0.25812157  0.39719421  0.69098946     0.30000
F611        F  0.27245827  0.42574707  0.64101604    -0.19400
H612        H  0.34232462  0.40886318  0.73273092     0.18300
H613        H  0.13232891  0.41048115  0.75526051     0.18300
F614        F  0.19165758  0.42104332  0.85265564    -0.19400
C615        C  0.26623985  0.19303182  0.87824499    -0.20900
C616        C  0.20578933  0.19900913  0.86420219    -0.08900
C617        C  0.18254269  0.25056138  0.89087108     0.30000
C618        C  0.21722875  0.30243712  0.89410196    -0.20900
C619        C  0.27753070  0.29969027  0.88001242    -0.08900
C620        C  0.30124491  0.24270593  0.89016695     0.30000
F621        F  0.35985267  0.23453096  0.89604613    -0.19400
H622        H  0.28772622  0.15194409  0.88367554     0.18300
H623        H  0.19834219  0.34205152  0.91165522     0.18300
F624        F  0.13062103  0.24868219  0.91949440    -0.19400
C625        C  0.11602883  0.18512836  0.71939134    -0.20900
C626        C  0.13047667  0.19847551  0.77800989    -0.08900
C627        C  0.10417916  0.25301693  0.79336077     0.30000
C628        C  0.10307172  0.29895999  0.75168902    -0.20900
C629        C  0.12361384  0.28819638  0.69430376    -0.08900
C630        C  0.10843539  0.23048069  0.67853943     0.30000
F631        F  0.06810007  0.22219101  0.63581222    -0.19400
H632        H  0.09738403  0.14347342  0.70799514     0.18300
H633        H  0.07828393  0.33808286  0.76162778     0.18300
F634        F  0.06698044  0.25657224  0.83917411    -0.19400
C635        C  0.27911997  0.22159553  0.72525549    -0.20900
C636        C  0.33232813  0.19931725  0.70524678    -0.08900
C637        C  0.38481234  0.22435187  0.72752384     0.30000
C638        C  0.38120485  0.27253050  0.76718635    -0.20900
C639        C  0.32541079  0.29371398  0.78517547    -0.08900
C640        C  0.27576440  0.26723603  0.76113660     0.30000
F641        F  0.22123986  0.28332348  0.77577880    -0.19400
H642        H  0.23750090  0.20468671  0.71008442     0.18300
H643        H  0.42120064  0.29198439  0.78334805     0.18300
F644        F  0.43816321  0.20269825  0.71281260    -0.19400
C645        C  0.23115071  0.18347755  0.59197645    -0.20900
C646        C  0.28969815  0.19101913  0.60882139    -0.08900
C647        C  0.31002989  0.24949412  0.59971748     0.30000
C648        C  0.27085862  0.29671596  0.60850600    -0.20900
C649        C  0.20997823  0.28716105  0.61778946    -0.08900
C650        C  0.19271244  0.23223186  0.59184929     0.30000
F651        F  0.14129174  0.22512019  0.56357407    -0.19400
H652        H  0.21585742  0.14153811  0.57615760     0.18300
H653        H  0.29030957  0.33899170  0.60666722     0.18300
F654        F  0.36828956  0.26159725  0.59872394    -0.19400
C655        C  0.22652889  0.08846641  0.68274391    -0.20900
C656        C  0.28562133  0.10415358  0.69279502    -0.08900
C657        C  0.30477727  0.09000680  0.75018178     0.30000
C658        C  0.26383536  0.09284629  0.79635596    -0.20900
C659        C  0.20518725  0.10935695  0.78504783    -0.08900
C660        C  0.18741965  0.08584265  0.73061125     0.30000
F661        F  0.13587737  0.05629793  0.72544300    -0.19400
H662        H  0.21168952  0.07498487  0.64023331     0.18300
H663        H  0.27681618  0.07759305  0.83882700     0.18300
F664        F  0.36284286  0.08555203  0.76270913    -0.19400
C665        C  0.10323893  0.30240015  0.22584694    -0.20900
C666        C  0.12439457  0.29119986  0.28296455    -0.08900
C667        C  0.11074068  0.23264237  0.29782995     0.30000
C668        C  0.11698345  0.18823793  0.25585027    -0.20900
C669        C  0.13115289  0.20234646  0.19752717    -0.08900
C670        C  0.10492050  0.25722998  0.18310523     0.30000
F671        F  0.06944043  0.26221156  0.13593505    -0.19400
H672        H  0.07770479  0.34106426  0.21681602     0.18300
H673        H  0.09834879  0.14637283  0.26663109     0.18300
F674        F  0.07250214  0.22213480  0.34180803    -0.19400
C675        C  0.22200397  0.19064319  0.39192764    -0.20900
C676        C  0.28190943  0.19706366  0.37837180    -0.08900
C677        C  0.30296858  0.25515950  0.38922343     0.30000
C678        C  0.26498918  0.30338109  0.37976215    -0.20900
C679        C  0.20509754  0.29434614  0.36556350    -0.08900
C680        C  0.18529410  0.24110116  0.39197921     0.30000
F681        F  0.13428891  0.23940818  0.42221666    -0.19400
H682        H  0.20464064  0.14868675  0.40548235     0.18300
H683        H  0.28276697  0.34591078  0.38833558     0.18300
F684        F  0.36128340  0.26603663  0.39396816    -0.19400
C685        C  0.22325030  0.09425101  0.29740615    -0.20900
C686        C  0.28303619  0.11015444  0.29329819    -0.08900
C687        C  0.30723024  0.09783237  0.23760903     0.30000
C688        C  0.27171551  0.10768903  0.18825608    -0.20900
C689        C  0.21040570  0.11784964  0.19398829    -0.08900
C690        C  0.18941303  0.09015526  0.24548674     0.30000
F691        F  0.13781905  0.06025156  0.24553379    -0.19400
H692        H  0.20386040  0.08240287  0.33857428     0.18300
H693        H  0.29380642  0.10500394  0.14777392     0.18300
F694        F  0.36631220  0.09439618  0.23041305    -0.19400
C695        C  0.38164680  0.26997649  0.21592809    -0.20900
C696        C  0.32684063  0.29056259  0.19483168    -0.08900
C697        C  0.27598013  0.26665855  0.21871935     0.30000
C698        C  0.27731310  0.22759077  0.26151245    -0.20900
C699        C  0.32945993  0.20536472  0.28421075    -0.08900
C700        C  0.38309372  0.22588579  0.26003397     0.30000
F701        F  0.43542800  0.20292657  0.27629973    -0.19400
H702        H  0.42240438  0.28699051  0.19884952     0.18300
H703        H  0.23496589  0.21296613  0.27689598     0.18300
F704        F  0.22231941  0.28324643  0.20167186    -0.19400
C705        C  0.21969378  0.40026250  0.17663438    -0.20900
C706        C  0.27888164  0.38541835  0.18499907    -0.08900
C707        C  0.29970972  0.39935881  0.24167686     0.30000
C708        C  0.26052739  0.39525796  0.28896293    -0.20900
C709        C  0.20189879  0.37729865  0.27954685    -0.08900
C710        C  0.18134886  0.39890219  0.22470989     0.30000
F711        F  0.12749307  0.42311245  0.21795675    -0.19400
H712        H  0.20346402  0.41408131  0.13491421     0.18300
H713        H  0.27522808  0.41041963  0.33065329     0.18300
F714        F  0.35811069  0.40413242  0.25242997    -0.19400
C715        C  0.30345889  0.24397549  0.08648350    -0.20900
C716        C  0.28139979  0.30112815  0.09882503    -0.08900
C717        C  0.22163967  0.30691639  0.08370882     0.30000
C718        C  0.18481137  0.25694176  0.08785485    -0.20900
C719        C  0.20715754  0.20360482  0.11120708    -0.08900
C720        C  0.26574853  0.19493979  0.09209218     0.30000
F721        F  0.28120428  0.14467680  0.06404186    -0.19400
H722        H  0.35013203  0.23637372  0.08192110     0.18300
H723        H  0.14073586  0.25967029  0.07156487     0.18300
F724        F  0.20190677  0.35585348  0.05620763    -0.19400
loop_ 
_geom_bond_atom_site_label_1 
_geom_bond_atom_site_label_2 
_geom_bond_distance 
_geom_bond_site_symmetry_2 
_ccdc_geom_bond_type 
C1            C9   1.495       .  S
C1          C696   1.539       .  S
C1          C706   1.580       .  S
C1          C716   1.583       .  S
C2           C96   1.512       .  S
C2          C676   1.586       .  S
C2          C686   1.592       .  S
C2          C699   1.545       .  S
C3          C165   1.512       .  S
C3          C669   1.612       .  S
C3          C689   1.622       .  S
C3          C719   1.614       .  S
C4          C222   1.515       .  S
C4          C666   1.615       .  S
C4          C679   1.629       .  S
C4          C709   1.613       .  S
C5          C106   1.507       .  S
C5          C636   1.541       .  S
C5          C646   1.586       .  S
C5          C656   1.591       .  S
C6          C143   1.508       .  S
C6          C616   1.618       .  S
C6          C626   1.610       .  S
C6          C659   1.616       .  S
C7          C192   1.517       .  S
C7          C609   1.616       .  S
C7          C629   1.611       .  S
C7          C649   1.631       .  S
C8           C29   1.514       .  S
C8          C606   1.587       .  S
C8          C619   1.593       .  S
C8          C639   1.546       .  S
C9           N27   1.344       .  A
C9           C46   1.471       .  S
N10          N27   1.312       .  A
N10          N32   1.316       .  A
N10         Co47   2.056   1_554  S
C11          N36   1.330       .  A
C11          C49   1.461       .  S
C11          H56   1.073       .  S
H12          C53   1.081       .  S
C13          N37   1.333       .  A
C13          C17   1.463       .  S
C13          H42   1.078       .  S
Co14         N32   2.080   1_556  S
Co14         N22   2.092   1_556  S
Co14         N54   2.096       .  S
Co14         N30   2.080       .  S
Co14        Cl58   2.474       .  S
N15          C53   1.331       .  A
N15          N22   1.320       .  A
N15         Co16   2.061   1_554  S
Co16         N19   2.072   1_556  S
Co16         N36   2.068       .  S
Co16         N23   2.064       .  S
Co16        Cl58   2.428       .  S
C17         C129   1.502       .  S
C17          N55   1.351       .  A
N18          N25   1.315       .  A
N18          N48   1.324       .  A
N18         Co51   2.083   1_554  S
N19          N37   1.316       .  A
N19          N55   1.323       .  A
N20          C49   1.355       .  A
N20          N30   1.324       .  A
H21          C46   1.081       .  S
N22          N43   1.326       .  A
N23          N41   1.315       .  A
N23          N28   1.322       .  A
C24         C131   1.504       .  S
C24          N28   1.350       .  A
C24          C52   1.464       .  S
N25          C40   1.337       .  A
N25         Co47   2.070   1_554  S
C26          N54   1.344       .  A
C26          C29   1.477       .  S
C26          H60   1.079       .  S
C29          N50   1.348       .  A
N30          N36   1.317       .  A
N31          C57   1.336       .  A
N31          N33   1.315       .  A
N31         Co47   2.070       .  S
N32          C46   1.344       .  A
N33          N61   1.322       .  A
N33         Co51   2.067       .  S
H34          C57   1.082       .  S
H35          C52   1.077       .  S
N37         Co51   2.071   1_554  S
N38          N50   1.318       .  A
N38          N54   1.317       .  A
N38         Co47   2.069       .  S
C39         C190   1.497       .  S
C39          N43   1.355       .  A
C39          C53   1.453       .  S
C40          C59   1.460       .  S
C40          H44   1.082       .  S
N41          C52   1.335       .  A
N41         Co51   2.075       .  S
C45         C123   1.496       .  S
C45          N61   1.349       .  A
C45          C57   1.463       .  S
Co47        Cl58   2.413       .  S
N48          C59   1.355       .  A
C49         C119   1.510       .  S
Co51        Cl58   2.447       .  S
C59          C62   1.503       .  S
C62         C576   1.606       .  S
C62         C586   1.624       .  S
C62         C596   1.607       .  S
C63         C175   1.518       .  S
C63         C556   1.552       .  S
C63         C566   1.591       .  S
C63         C599   1.586       .  S
C64         C200   1.524       .  S
C64         C546   1.584       .  S
C64         C559   1.553       .  S
C64         C589   1.596       .  S
C65          C66   1.500       .  S
C65         C549   1.612       .  S
C65         C569   1.622       .  S
C65         C579   1.605       .  S
C66          N84   1.353       .  A
C66         C103   1.459       .  S
N67          N84   1.323       .  A
N67          N89   1.316       .  A
N67        Co104   2.084       .  S
C68          N93   1.346       .  A
C68         C106   1.480       .  S
C68         H113   1.079       .  S
H69         C110   1.080       .  S
C70          N94   1.332       .  A
C70          C74   1.452       .  S
C70          H99   1.082       .  S
Co71         N89   2.065   1_545  S
Co71         N79   2.067       .  S
Co71        N111   2.068   1_545  S
Co71         N87   2.060       .  S
Co71       Cl115   2.414       .  S
N72         C110   1.347       .  A
N72          N79   1.316       .  A
N72         Co73   2.097       .  S
Co73         N76   2.092       .  S
Co73         N93   2.098       .  S
Co73         N80   2.090       .  S
Co73       Cl115   2.477       .  S
C74         C188   1.496       .  S
C74         N112   1.354       .  A
N75          N82   1.316       .  A
N75         N105   1.323       .  A
N75        Co108   2.072       .  S
N76          N94   1.320       .  A
N76         N112   1.324       .  A
N77         C106   1.346       .  A
N77          N87   1.314       .  A
H78         C103   1.081       .  S
N79         N100   1.317       .  A
N80          N98   1.319       .  A
N80          N85   1.325       .  A
C81         C121   1.516       .  S
C81          N85   1.355       .  A
C81         C109   1.462       .  S
N82          C97   1.334       .  A
N82        Co104   2.077       .  S
C83         N111   1.335       .  A
C83          C86   1.459       .  S
C83         H117   1.081       .  S
C86         C124   1.507       .  S
C86         N107   1.355       .  A
N87          N93   1.316       .  A
N88         C114   1.335       .  A
N88          N90   1.317       .  A
N88        Co104   2.083       .  S
N89         C103   1.337       .  A
N90         N118   1.322       .  A
N90        Co108   2.066       .  S
H91         C114   1.077       .  S
H92         C109   1.079       .  S
N94        Co108   2.059   1_545  S
N95         N107   1.326       .  A
N95         N111   1.315       .  A
N95        Co104   2.084       .  S
C96         N100   1.347       .  A
C96         C110   1.478       .  S
C97         C116   1.464       .  S
C97         H101   1.076       .  S
N98         C109   1.333       .  A
N98        Co108   2.072   1_545  S
C102        C133   1.507       .  S
C102        N118   1.348       .  A
C102        C114   1.467       .  S
Co104      Cl115   2.448   1_565  S
N105        C116   1.352       .  A
Co108      Cl115   2.436   1_565  S
C116        C127   1.505       .  S
C119        C516   1.617       .  S
C119        C529   1.613       .  S
C119        C536   1.625       .  S
C120        C212   1.512       .  S
C120        C496   1.549       .  S
C120        C506   1.588       .  S
C120        C539   1.582       .  S
C121        C486   1.594       .  S
C121        C499   1.548       .  S
C121        C519   1.585       .  S
C122        C185   1.507       .  S
C122        C489   1.616       .  S
C122        C509   1.620       .  S
C122        C526   1.608       .  S
C123        C456   1.617       .  S
C123        C466   1.607       .  S
C123        C476   1.609       .  S
C124        C436   1.618       .  S
C124        C446   1.621       .  S
C124        C479   1.608       .  S
C125        C242   1.522       .  S
C125        C426   1.552       .  S
C125        C439   1.589       .  S
C125        C459   1.588       .  S
C126        C150   1.512       .  S
C126        C429   1.547       .  S
C126        C449   1.589       .  S
C126        C469   1.587       .  S
C127        C396   1.609       .  S
C127        C406   1.623       .  S
C127        C416   1.612       .  S
C128        C207   1.521       .  S
C128        C376   1.593       .  S
C128        C386   1.551       .  S
C128        C419   1.590       .  S
C129        C369   1.617       .  S
C129        C379   1.616       .  S
C129        C399   1.606       .  S
C130        C155   1.516       .  S
C130        C366   1.589       .  S
C130        C389   1.553       .  S
C130        C409   1.585       .  S
C131        C336   1.606       .  S
C131        C346   1.616       .  S
C131        C356   1.620       .  S
C132        C228   1.521       .  S
C132        C316   1.600       .  S
C132        C326   1.554       .  S
C132        C349   1.586       .  S
C133        C306   1.620       .  S
C133        C319   1.620       .  S
C133        C339   1.606       .  S
C134        C171   1.514       .  S
C134        C309   1.586       .  S
C134        C329   1.551       .  S
C134        C359   1.594       .  S
C135        C189   1.521       .  S
C135        N153   1.353       .  A
C135        C172   1.477       .  S
N136        N153   1.320       .  A
N136        N158   1.317       .  A
N136       Co173   2.091   1_544  S
C137        N162   1.326       .  A
C137        C175   1.456       .  S
C137        H182   1.081       .  S
H138        C179   1.080       .  S
C139        N163   1.340       .  A
C139        C143   1.463       .  S
C139        H168   1.081       .  S
Co140       N158   2.098   1_465  S
Co140       N148   2.091   1_565  S
Co140       N180   2.099   1_455  S
Co140       N156   2.111       .  S
Co140      Cl184   2.509   1_454  S
N141        C179   1.336       .  A
N141        N148   1.319       .  A
N141       Co142   2.082   1_544  S
Co142       N145   2.089   1_565  S
Co142       N162   2.067   1_556  S
Co142       N149   2.070       .  S
Co142      Cl184   2.397   1_455  S
C143        N181   1.353       .  A
N144        N151   1.319       .  A
N144        N174   1.323       .  A
N144       Co177   2.079   1_545  S
N145        N163   1.318       .  A
N145        N181   1.324       .  A
N146        C175   1.364       .  A
N146        N156   1.334       .  A
H147        C172   1.080       .  S
N148        N169   1.327       .  A
N149        N167   1.317       .  A
N149        N154   1.315       .  A
C150        N154   1.346       .  A
C150        C178   1.479       .  S
N151        C166   1.341       .  A
N151       Co173   2.090   1_545  S
C152        N180   1.350       .  A
C152        C155   1.477       .  S
C152        H186   1.080       .  S
C155        N176   1.351       .  A
N156        N162   1.318       .  A
N157        C183   1.329       .  A
N157        N159   1.319       .  A
N157       Co173   2.077       .  S
N158        C172   1.349       .  A
N159        N187   1.332       .  A
N159       Co177   2.097       .  S
H160        C183   1.082       .  S
H161        C178   1.081       .  S
N163       Co177   2.080   1_445  S
N164        N176   1.319       .  A
N164        N180   1.318       .  A
N164       Co173   2.089   1_554  S
C165        N169   1.355       .  A
C165        C179   1.462       .  S
C166        C185   1.466       .  S
C166        H170   1.081       .  S
N167        C178   1.350       .  A
N167       Co177   2.099   1_455  S
C171        N187   1.359       .  A
C171        C183   1.459       .  S
Co173      Cl184   2.397       .  S
N174        C185   1.351       .  A
Co177      Cl184   2.499       .  S
C188        C279   1.598       .  S
C188        C286   1.619       .  S
C188        C296   1.622       .  S
C189        C256   1.587       .  S
C189        C266   1.558       .  S
C189        C299   1.587       .  S
C190        C246   1.612       .  S
C190        C259   1.622       .  S
C190        C276   1.600       .  S
C191        C232   1.524       .  S
C191        C249   1.587       .  S
C191        C269   1.555       .  S
C191        C289   1.589       .  S
C192        N210   1.354       .  A
C192        C229   1.467       .  S
N193        N210   1.323       .  A
N193        N215   1.316       .  A
N193       Co230   2.082   1_455  S
C194        N219   1.337       .  A
C194        C232   1.468       .  S
C194        H239   1.079       .  S
H195        C236   1.076       .  S
C196        N220   1.339       .  A
C196        C200   1.467       .  S
C196        H225   1.080       .  S
Co197       N215   2.077   1_655  S
Co197       N205   2.075   1_655  S
Co197       N237   2.097       .  S
Co197       N213   2.083       .  S
Co197      Cl241   2.473       .  S
N198        C236   1.335       .  A
N198        N205   1.318       .  A
N198       Co199   2.085   1_455  S
Co199       N202   2.090   1_655  S
Co199       N219   2.091       .  S
Co199       N206   2.081       .  S
Co199      Cl241   2.438       .  S
C200        N238   1.354       .  A
N201        N208   1.318       .  A
N201        N231   1.325       .  A
N201       Co234   2.087   1_455  S
N202        N220   1.318       .  A
N202        N238   1.325       .  A
N203        C232   1.353       .  A
N203        N213   1.325       .  A
H204        C229   1.073       .  S
N205        N226   1.324       .  A
N206        N224   1.319       .  A
N206        N211   1.323       .  A
C207        N211   1.350       .  A
C207        C235   1.469       .  S
N208        C223   1.336       .  A
N208       Co230   2.080   1_455  S
C209        N237   1.348       .  A
C209        C212   1.475       .  S
C209        H243   1.080       .  S
C212        N233   1.348       .  A
N213        N219   1.320       .  A
N214        C240   1.338       .  A
N214        N216   1.317       .  A
N214       Co230   2.077       .  S
N215        C229   1.336       .  A
N216        N244   1.323       .  A
N216       Co234   2.082       .  S
H217        C240   1.079       .  S
H218        C235   1.080       .  S
N220       Co234   2.084   1_455  S
N221        N233   1.316       .  A
N221        N237   1.318       .  A
N221       Co230   2.073       .  S
C222        N226   1.350       .  A
C222        C236   1.468       .  S
C223        C242   1.467       .  S
C223        H227   1.080       .  S
N224        C235   1.339       .  A
N224       Co234   2.087       .  S
C228        N244   1.354       .  A
C228        C240   1.466       .  S
Co230      Cl241   2.432       .  S
N231        C242   1.353       .  A
Co234      Cl241   2.463       .  S
C245        H252   1.067       .  S
C245        C246   1.409       .  A
C245        C250   1.403       .  A
C246        C247   1.422       .  A
C247        C248   1.418       .  A
C247        F254   1.356       .  S
C248        H253   1.077       .  S
C248        C249   1.412       .  A
C249        C250   1.426       .  A
C250        F251   1.356       .  S
C255        H262   1.077       .  S
C255        C256   1.409       .  A
C255        C260   1.416       .  A
C256        C257   1.421       .  A
C257        C258   1.412       .  A
C257        F264   1.357       .  S
C258        H263   1.068       .  S
C258        C259   1.418       .  A
C259        C260   1.419       .  A
C260        F261   1.354       .  S
C265        H272   1.080       .  S
C265        C266   1.393       .  A
C265        C270   1.329       .  A
C266        C267   1.423       .  A
C267        C268   1.433       .  A
C267        F274   1.354       .  S
C268        H273   1.082       .  S
C268        C269   1.422       .  A
C269        C270   1.393       .  A
C270        F271   1.336       .  S
C275        H282   1.072       .  S
C275        C276   1.414       .  A
C275        C280   1.409       .  A
C276        C277   1.408       .  A
C277        C278   1.398       .  A
C277        F284   1.354       .  S
C278        H283   1.071       .  S
C278        C279   1.411       .  A
C279        C280   1.417       .  A
C280        F281   1.352       .  S
C285        H292   1.072       .  S
C285        C286   1.410       .  A
C285        C290   1.412       .  A
C286        C287   1.422       .  A
C287        C288   1.418       .  A
C287        F294   1.354       .  S
C288        H293   1.077       .  S
C288        C289   1.411       .  A
C289        C290   1.427       .  A
C290        F291   1.356       .  S
C295        H302   1.062       .  S
C295        C296   1.419       .  A
C295        C300   1.409       .  A
C296        C297   1.422       .  A
C297        C298   1.419       .  A
C297        F304   1.357       .  S
C298        H303   1.078       .  S
C298        C299   1.410       .  A
C299        C300   1.422       .  A
C300        F301   1.355       .  S
C305        H312   1.078       .  S
C305        C306   1.418       .  A
C305        C310   1.414       .  A
C306        C307   1.410       .  A
C307        C308   1.420       .  A
C307        F314   1.359       .  S
C308        H313   1.082       .  S
C308        C309   1.428       .  A
C309        C310   1.408       .  A
C310        F311   1.354       .  S
C315        H322   1.075       .  S
C315        C316   1.413       .  A
C315        C320   1.423       .  A
C316        C317   1.420       .  A
C317        C318   1.408       .  A
C317        F324   1.358       .  S
C318        H323   1.057       .  S
C318        C319   1.428       .  A
C319        C320   1.422       .  A
C320        F321   1.355       .  S
C325        H332   1.082       .  S
C325        C326   1.421       .  A
C325        C330   1.430       .  A
C326        C327   1.393       .  A
C327        C328   1.335       .  A
C327        F334   1.334       .  S
C328        H333   1.078       .  S
C328        C329   1.391       .  A
C329        C330   1.422       .  A
C330        F331   1.355       .  S
C335        H342   1.075       .  S
C335        C336   1.406       .  A
C335        C340   1.406       .  A
C336        C337   1.416       .  A
C337        C338   1.397       .  A
C337        F344   1.352       .  S
C338        H343   1.073       .  S
C338        C339   1.406       .  A
C339        C340   1.430       .  A
C340        F341   1.348       .  S
C345        H352   1.076       .  S
C345        C346   1.421       .  A
C345        C350   1.416       .  A
C346        C347   1.405       .  A
C347        C348   1.414       .  A
C347        F354   1.359       .  S
C348        H353   1.081       .  S
C348        C349   1.430       .  A
C349        C350   1.409       .  A
C350        F351   1.353       .  S
C355        H362   1.057       .  S
C355        C356   1.429       .  A
C355        C360   1.408       .  A
C356        C357   1.424       .  A
C357        C358   1.416       .  A
C357        F364   1.353       .  S
C358        H363   1.074       .  S
C358        C359   1.408       .  A
C359        C360   1.416       .  A
C360        F361   1.358       .  S
C365        H372   1.075       .  S
C365        C366   1.410       .  A
C365        C370   1.418       .  A
C366        C367   1.421       .  A
C367        C368   1.411       .  A
C367        F374   1.357       .  S
C368        H373   1.063       .  S
C368        C369   1.421       .  A
C369        C370   1.417       .  A
C370        F371   1.356       .  S
C375        H382   1.074       .  S
C375        C376   1.413       .  A
C375        C380   1.420       .  A
C376        C377   1.428       .  A
C377        C378   1.411       .  A
C377        F384   1.356       .  S
C378        H383   1.073       .  S
C378        C379   1.409       .  A
C379        C380   1.421       .  A
C380        F381   1.356       .  S
C385        H392   1.082       .  S
C385        C386   1.420       .  A
C385        C390   1.429       .  A
C386        C387   1.390       .  A
C387        C388   1.329       .  A
C387        F394   1.333       .  S
C388        H393   1.080       .  S
C388        C389   1.393       .  A
C389        C390   1.422       .  A
C390        F391   1.353       .  S
C395        H402   1.075       .  S
C395        C396   1.403       .  A
C395        C400   1.397       .  A
C396        C397   1.426       .  A
C397        C398   1.408       .  A
C397        F404   1.352       .  S
C398        H403   1.070       .  S
C398        C399   1.412       .  A
C399        C400   1.421       .  A
C400        F401   1.350       .  S
C405        H412   1.078       .  S
C405        C406   1.420       .  A
C405        C410   1.418       .  A
C406        C407   1.416       .  A
C407        C408   1.414       .  A
C407        F414   1.352       .  S
C408        H413   1.082       .  S
C408        C409   1.422       .  A
C409        C410   1.410       .  A
C410        F411   1.353       .  S
C415        H422   1.074       .  S
C415        C416   1.419       .  A
C415        C420   1.419       .  A
C416        C417   1.415       .  A
C417        C418   1.408       .  A
C417        F424   1.348       .  S
C418        H423   1.082       .  S
C418        C419   1.421       .  A
C419        C420   1.413       .  A
C420        F421   1.353       .  S
C425        H432   1.079       .  S
C425        C426   1.389       .  A
C425        C430   1.331       .  A
C426        C427   1.422       .  A
C427        C428   1.428       .  A
C427        F434   1.355       .  S
C428        H433   1.080       .  S
C428        C429   1.418       .  A
C429        C430   1.395       .  A
C430        F431   1.337       .  S
C435        H442   1.062       .  S
C435        C436   1.412       .  A
C435        C440   1.409       .  A
C436        C437   1.421       .  A
C437        C438   1.420       .  A
C437        F444   1.357       .  S
C438        H443   1.078       .  S
C438        C439   1.412       .  A
C439        C440   1.426       .  A
C440        F441   1.357       .  S
C445        H452   1.074       .  S
C445        C446   1.419       .  A
C445        C450   1.417       .  A
C446        C447   1.423       .  A
C447        C448   1.414       .  A
C447        F454   1.353       .  S
C448        H453   1.082       .  S
C448        C449   1.420       .  A
C449        C450   1.411       .  A
C450        F451   1.353       .  S
C455        H462   1.056       .  S
C455        C456   1.419       .  A
C455        C460   1.403       .  A
C456        C457   1.425       .  A
C457        C458   1.418       .  A
C457        F464   1.354       .  S
C458        H463   1.078       .  S
C458        C459   1.408       .  A
C459        C460   1.424       .  A
C460        F461   1.357       .  S
C465        H472   1.077       .  S
C465        C466   1.415       .  A
C465        C470   1.412       .  A
C466        C467   1.410       .  A
C467        C468   1.414       .  A
C467        F474   1.359       .  S
C468        H473   1.082       .  S
C468        C469   1.423       .  A
C469        C470   1.411       .  A
C470        F471   1.351       .  S
C475        H482   1.076       .  S
C475        C476   1.418       .  A
C475        C480   1.414       .  A
C476        C477   1.405       .  A
C477        C478   1.401       .  A
C477        F484   1.355       .  S
C478        H483   1.069       .  S
C478        C479   1.416       .  A
C479        C480   1.420       .  A
C480        F481   1.354       .  S
C485        H492   1.074       .  S
C485        C486   1.413       .  A
C485        C490   1.421       .  A
C486        C487   1.426       .  A
C487        C488   1.404       .  A
C487        F494   1.357       .  S
C488        H493   1.063       .  S
C488        C489   1.413       .  A
C489        C490   1.422       .  A
C490        F491   1.356       .  S
C495        H502   1.080       .  S
C495        C496   1.393       .  A
C495        C500   1.328       .  A
C496        C497   1.422       .  A
C497        C498   1.427       .  A
C497        F504   1.353       .  S
C498        H503   1.082       .  S
C498        C499   1.419       .  A
C499        C500   1.391       .  A
C500        F501   1.335       .  S
C505        H512   1.078       .  S
C505        C506   1.411       .  A
C505        C510   1.417       .  A
C506        C507   1.422       .  A
C507        C508   1.413       .  A
C507        F514   1.356       .  S
C508        H513   1.070       .  S
C508        C509   1.416       .  A
C509        C510   1.419       .  A
C510        F511   1.354       .  S
C515        H522   1.073       .  S
C515        C516   1.420       .  A
C515        C520   1.414       .  A
C516        C517   1.414       .  A
C517        C518   1.415       .  A
C517        F524   1.357       .  S
C518        H523   1.082       .  S
C518        C519   1.426       .  A
C519        C520   1.408       .  A
C520        F521   1.353       .  S
C525        H532   1.070       .  S
C525        C526   1.420       .  A
C525        C530   1.411       .  A
C526        C527   1.413       .  A
C527        C528   1.407       .  A
C527        F534   1.353       .  S
C528        H533   1.075       .  S
C528        C529   1.409       .  A
C529        C530   1.415       .  A
C530        F531   1.356       .  S
C535        H542   1.058       .  S
C535        C536   1.421       .  A
C535        C540   1.409       .  A
C536        C537   1.437       .  A
C537        C538   1.406       .  A
C537        F544   1.351       .  S
C538        H543   1.077       .  S
C538        C539   1.397       .  A
C539        C540   1.417       .  A
C540        F541   1.357       .  S
C545        H552   1.082       .  S
C545        C546   1.427       .  A
C545        C550   1.412       .  A
C546        C547   1.408       .  A
C547        C548   1.414       .  A
C547        F554   1.354       .  S
C548        H553   1.074       .  S
C548        C549   1.418       .  A
C549        C550   1.407       .  A
C550        F551   1.355       .  S
C555        H562   1.081       .  S
C555        C556   1.418       .  A
C555        C560   1.431       .  A
C556        C557   1.397       .  A
C557        C558   1.332       .  A
C557        F564   1.336       .  S
C558        H563   1.080       .  S
C558        C559   1.388       .  A
C559        C560   1.424       .  A
C560        F561   1.356       .  S
C565        H572   1.083       .  S
C565        C566   1.415       .  A
C565        C570   1.412       .  A
C566        C567   1.413       .  A
C567        C568   1.420       .  A
C567        F574   1.352       .  S
C568        H573   1.077       .  S
C568        C569   1.421       .  A
C569        C570   1.429       .  A
C570        F571   1.344       .  S
C575        H582   1.073       .  S
C575        C576   1.409       .  A
C575        C580   1.400       .  A
C576        C577   1.421       .  A
C577        C578   1.412       .  A
C577        F584   1.355       .  S
C578        H583   1.075       .  S
C578        C579   1.415       .  A
C579        C580   1.412       .  A
C580        F581   1.356       .  S
C585        H592   1.057       .  S
C585        C586   1.425       .  A
C585        C590   1.408       .  A
C586        C587   1.423       .  A
C587        C588   1.421       .  A
C587        F594   1.357       .  S
C588        H593   1.075       .  S
C588        C589   1.412       .  A
C589        C590   1.420       .  A
C590        F591   1.358       .  S
C595        H602   1.074       .  S
C595        C596   1.416       .  A
C595        C600   1.411       .  A
C596        C597   1.409       .  A
C597        C598   1.414       .  A
C597        F604   1.358       .  S
C598        H603   1.082       .  S
C598        C599   1.422       .  A
C599        C600   1.409       .  A
C600        F601   1.352       .  S
C605        H612   1.083       .  S
C605        C606   1.423       .  A
C605        C610   1.415       .  A
C606        C607   1.411       .  A
C607        C608   1.415       .  A
C607        F614   1.353       .  S
C608        H613   1.076       .  S
C608        C609   1.421       .  A
C609        C610   1.413       .  A
C610        F611   1.357       .  S
C615        H622   1.060       .  S
C615        C616   1.420       .  A
C615        C620   1.408       .  A
C616        C617   1.422       .  A
C617        C618   1.420       .  A
C617        F624   1.353       .  S
C618        H623   1.075       .  S
C618        C619   1.412       .  A
C619        C620   1.421       .  A
C620        F621   1.354       .  S
C625        H632   1.069       .  S
C625        C626   1.417       .  A
C625        C630   1.403       .  A
C626        C627   1.419       .  A
C627        C628   1.415       .  A
C627        F634   1.353       .  S
C628        H633   1.077       .  S
C628        C629   1.418       .  A
C629        C630   1.403       .  A
C630        F631   1.356       .  S
C635        H642   1.080       .  S
C635        C636   1.391       .  A
C635        C640   1.325       .  A
C636        C637   1.419       .  A
C637        C638   1.425       .  A
C637        F644   1.353       .  S
C638        H643   1.078       .  S
C638        C639   1.420       .  A
C639        C640   1.394       .  A
C640        F641   1.337       .  S
C645        H652   1.077       .  S
C645        C646   1.399       .  A
C645        C650   1.411       .  A
C646        C647   1.422       .  A
C647        C648   1.409       .  A
C647        F654   1.355       .  S
C648        H653   1.058       .  S
C648        C649   1.420       .  A
C649        C650   1.436       .  A
C650        F651   1.348       .  S
C655        H662   1.076       .  S
C655        C656   1.411       .  A
C655        C660   1.415       .  A
C656        C657   1.424       .  A
C657        C658   1.413       .  A
C657        F664   1.357       .  S
C658        H663   1.075       .  S
C658        C659   1.411       .  A
C659        C660   1.417       .  A
C660        F661   1.357       .  S
C665        H672   1.073       .  S
C665        C666   1.419       .  A
C665        C670   1.419       .  A
C666        C667   1.408       .  A
C667        C668   1.401       .  A
C667        F674   1.354       .  S
C668        H673   1.070       .  S
C668        C669   1.413       .  A
C669        C670   1.421       .  A
C670        F671   1.355       .  S
C675        H682   1.078       .  S
C675        C676   1.407       .  A
C675        C680   1.418       .  A
C676        C677   1.425       .  A
C677        C678   1.412       .  A
C677        F684   1.355       .  S
C678        H683   1.065       .  S
C678        C679   1.417       .  A
C679        C680   1.426       .  A
C680        F681   1.354       .  S
C685        H692   1.077       .  S
C685        C686   1.412       .  A
C685        C690   1.421       .  A
C686        C687   1.419       .  A
C687        C688   1.409       .  A
C687        F694   1.358       .  S
C688        H693   1.058       .  S
C688        C689   1.421       .  A
C689        C690   1.422       .  A
C690        F691   1.357       .  S
C695        H702   1.079       .  S
C695        C696   1.418       .  A
C695        C700   1.424       .  A
C696        C697   1.392       .  A
C697        C698   1.324       .  A
C697        F704   1.337       .  S
C698        H703   1.080       .  S
C698        C699   1.391       .  A
C699        C700   1.420       .  A
C700        F701   1.353       .  S
C705        H712   1.073       .  S
C705        C706   1.402       .  A
C705        C710   1.407       .  A
C706        C707   1.420       .  A
C707        C708   1.408       .  A
C707        F714   1.357       .  S
C708        H713   1.070       .  S
C708        C709   1.413       .  A
C709        C710   1.429       .  A
C710        F711   1.353       .  S
C715        H722   1.082       .  S
C715        C716   1.420       .  A
C715        C720   1.412       .  A
C716        C717   1.410       .  A
C717        C718   1.414       .  A
C717        F724   1.354       .  S
C718        H723   1.073       .  S
C718        C719   1.418       .  A
C719        C720   1.418       .  A
C720        F721   1.356       .  S
