geometry optimzed in LAMMPS
_audit_creation_date              2020-11-30 
_audit_creation_method            'lammps2cif' 
_symmetry_space_group_name_H-M    'P1' 
_symmetry_Int_Tables_number       1 
_symmetry_cell_setting            triclinic 
loop_ 
_symmetry_equiv_pos_as_xyz 
  x,y,z 
_cell_length_a                    25.227289985373023 
_cell_length_b                    29.221821625311797 
_cell_length_c                    26.528117734381627 
_cell_angle_alpha                 88.81308222484888 
_cell_angle_beta                  91.61690845007547 
_cell_angle_gamma                 89.42059191740475 
loop_ 
_atom_site_label 
_atom_site_type_symbol 
_atom_site_fract_x 
_atom_site_fract_y 
_atom_site_fract_z 
_atom_site_charge 
C1          C  0.22980263  0.75325234  0.46806774     0.03010
C2          C  0.23449172  0.72965176  0.51437007    -0.13140
C3          C  0.19388981  0.73294656  0.54972774     0.00510
C4          C  0.14884533  0.76022163  0.53698096    -0.11660
C5          C  0.15053753  0.79149964  0.49616848     0.03010
C6          C  0.18530373  0.78158133  0.45810204    -0.11080
H7          H  0.27137832  0.71210469  0.52424923     0.08600
H8          H  0.11860892  0.76472385  0.56411516     0.06130
H9          H  0.18293747  0.80192342  0.42355703     0.05980
C10         C  0.25260096  0.76105859  0.27231380     0.00450
C11         C  0.19888725  0.75348517  0.25766835     0.00450
C12         C  0.25130334  0.72185830  0.74927325     0.00450
C13         C  0.19778835  0.71225658  0.76092370     0.00450
C14         C  0.24554224  0.76547943  0.05354568     0.03010
C15         C  0.21265762  0.77043240  0.00747368    -0.13140
C16         C  0.22047422  0.73748496  0.96732853     0.00510
C17         C  0.25722994  0.70209732  0.97922207    -0.11660
C18         C  0.26507801  0.69125243  0.02955584     0.03010
C19         C  0.28318772  0.73113217  0.05013260    -0.11080
H20         H  0.17901754  0.79353844  0.00600647     0.08600
H21         H  0.27272335  0.67935680  0.95142789     0.06130
H22         H  0.31731216  0.73061621  0.07462440     0.05980
C23         C  0.97976342  0.68001114  0.46306197     0.03010
C24         C  0.02269036  0.69946429  0.48819138    -0.13140
C25         C  0.51226518  0.72799606  0.52747771     0.00510
C26         C  0.98396304  0.70482947  0.56327806    -0.11660
C27         C  0.93735157  0.68412588  0.54671602     0.03010
C28         C  0.93432574  0.67150843  0.49451844    -0.11080
H29         H  0.56272274  0.69435384  0.47671601     0.08600
H30         H  0.48844002  0.71349181  0.60220009     0.06130
H31         H  0.89712729  0.66048321  0.47849528     0.05980
C32         C  0.45263729  0.74067317  0.25553161     0.00450
C33         C  0.50387787  0.73374144  0.23676777     0.00450
C34         C  0.44396154  0.72602258  0.73435695     0.00450
C35         C  0.49843411  0.71722711  0.74685171     0.00450
C36         C  0.43687724  0.71649739  0.03472156     0.03010
C37         C  0.46718115  0.72758752  0.99255379    -0.13140
C38         C  0.45385793  0.71075611  0.94470870     0.00510
C39         C  0.40973857  0.68248015  0.93914635    -0.11660
C40         C  0.38711450  0.66337455  0.98173005     0.03010
C41         C  0.39313200  0.68772173  0.02650426    -0.11080
H42         H  0.50475924  0.74399334  0.99791348     0.08600
H43         H  0.40212652  0.66802832  0.90272845     0.06130
H44         H  0.37056974  0.67588739  0.05729460     0.05980
O45         O  0.41082576  0.00249511  0.50461743    -0.74540
O46         O  0.27806385  0.94865304  0.47837231    -0.74570
O47         O  0.30679387  0.02656385  0.51241651    -0.74630
O48         O  0.38502822  0.92234793  0.47497826    -0.74680
O49         O  0.37941541  0.89609945  0.55391140    -0.74610
O50         O  0.31304525  0.00384963  0.59329657    -0.74590
O51         O  0.27674525  0.92842160  0.55948600    -0.74560
O52         O  0.41662367  0.97456081  0.58313551    -0.74630
Ni53       Ni  0.34519398  0.97595319  0.48954048     1.25410
Ni54       Ni  0.34645480  0.94965643  0.57541610     1.25360
C55         C  0.43851770  0.99201254  0.54429949     0.87640
C56         C  0.25263107  0.93473286  0.51642204     0.87570
C57         C  0.29184329  0.02847680  0.55819165     0.87600
C58         C  0.40089665  0.89537071  0.51112265     0.87770
C59         C  0.02795976  0.17752521  0.44973891     0.03010
C60         C  0.06736967  0.14815017  0.47106062    -0.13140
C61         C  0.55923477  0.12731563  0.51806234     0.00510
C62         C  0.02672638  0.14999905  0.55108280    -0.11660
C63         C  0.98664114  0.17967504  0.53202103     0.03010
C64         C  0.98597606  0.19157886  0.48074960    -0.11080
H65         H  0.59923892  0.13569703  0.44899685     0.08600
H66         H  0.52505040  0.13743356  0.58969191     0.06130
H67         H  0.95187831  0.20998533  0.46476134     0.05980
C68         C  0.46963160  0.21676222  0.24266772     0.00450
C69         C  0.50699051  0.24457059  0.21784730     0.00450
C70         C  0.41316655  0.21440266  0.71901920     0.00450
C71         C  0.45770114  0.23697416  0.74006729     0.00450
C72         C  0.37805259  0.25996952  0.93234717     0.03010
C73         C  0.35940433  0.30535842  0.93601402    -0.13140
C74         C  0.38145319  0.33299512  0.97126283     0.00510
C75         C  0.39700462  0.31369289  0.01710602    -0.11660
C76         C  0.41194304  0.26829372  0.01991749     0.03010
C77         C  0.40388460  0.24086565  0.97724156    -0.11080
H78         H  0.34187917  0.32452631  0.90561010     0.08600
H79         H  0.40864266  0.33539782  0.04795186     0.06130
H80         H  0.42196967  0.20771106  0.97955970     0.05980
C81         C  0.15898861  0.24188217  0.75367440     0.00450
C82         C  0.20769310  0.23347117  0.73034649     0.00450
C83         C  0.14138403  0.27187825  0.96407430     0.03010
C84         C  0.16857771  0.24462283  0.00098207    -0.13140
C85         C  0.21400114  0.26249020  0.02622935     0.00510
C86         C  0.23291335  0.30323225  0.00670126    -0.11660
C87         C  0.19634399  0.33515080  0.98751098     0.03010
C88         C  0.14679775  0.31980453  0.96993327    -0.11080
H89         H  0.15290421  0.21150430  0.01017879     0.08600
H90         H  0.27376820  0.31243325  0.01169571     0.06130
H91         H  0.12045144  0.34360524  0.94960070     0.05980
C92         C  0.26241351  0.25449581  0.45973136     0.03010
C93         C  0.23165171  0.28236573  0.49007660    -0.13140
C94         C  0.20859979  0.26179989  0.53220492     0.00510
C95         C  0.21220118  0.21443500  0.53732400    -0.11660
C96         C  0.25266252  0.19137189  0.51589645     0.03010
C97         C  0.28058569  0.21164908  0.47818047    -0.11080
H98         H  0.22220356  0.31689174  0.47805677     0.08600
H99         H  0.18856460  0.19507103  0.56334381     0.06130
H100        H  0.30735232  0.19059594  0.45702407     0.05980
C101        C  0.21388842  0.23242611  0.23712222     0.00450
C102        C  0.26168714  0.21220361  0.25889389     0.00450
O103        O  0.15130337  0.48630106  0.05787172    -0.74540
O104        O  0.00214864  0.49654427  0.03984166    -0.74570
O105        O  0.07705380  0.43087151  0.02574946    -0.74630
O106        O  0.08083430  0.54896560  0.07491795    -0.74680
O107        O  0.09619351  0.57354674  0.99638180    -0.74610
O108        O  0.07859869  0.45592167  0.94652848    -0.74590
O109        O  0.01186681  0.52364669  0.96200421    -0.74560
O110        O  0.16135803  0.50632761  0.97722675    -0.74630
Ni111      Ni  0.07706285  0.48955852  0.05244123     1.25410
Ni112      Ni  0.08739523  0.51625648  0.96743992     1.25360
C113        C  0.18074168  0.49183567  0.01972983     0.87640
C114        C  0.98184751  0.51195021  0.99793354     0.87570
C115        C  0.06337102  0.42741122  0.97985987     0.87600
C116        C  0.09786618  0.57859448  0.04418602     0.87770
C117        C  0.34684086  0.95610046  0.98986007     0.00450
C118        C  0.34147355  0.00621626  0.98873755     0.00450
C119        C  0.36151733  0.13890345  0.17091498     0.03010
C120        C  0.31448069  0.15719554  0.19423721    -0.13140
C121        C  0.31353247  0.19514692  0.22887232     0.00510
C122        C  0.36469080  0.21501675  0.23894584    -0.11660
C123        C  0.41442846  0.19726753  0.22161066     0.03010
C124        C  0.41101330  0.15851837  0.18888678    -0.11080
H125        H  0.27824897  0.14165653  0.18413471     0.08600
H126        H  0.36581958  0.24450163  0.26241048     0.06130
H127        H  0.44778194  0.14330406  0.17783659     0.05980
C128        C  0.31080336  0.14727728  0.80863847     0.03010
C129        C  0.35799243  0.16140273  0.78334173    -0.13140
C130        C  0.36077223  0.19927997  0.74771965     0.00510
C131        C  0.31138827  0.22113876  0.73451309    -0.11660
C132        C  0.26081225  0.20929684  0.75440900     0.03010
C133        C  0.26273621  0.17226182  0.79219375    -0.11080
H134        H  0.39320683  0.14197293  0.79167113     0.08600
H135        H  0.31286168  0.24709500  0.70584433     0.06130
H136        H  0.22638783  0.16103589  0.80723305     0.05980
C137        C  0.35204727  0.82380103  0.17510666     0.03010
C138        C  0.30452131  0.81215083  0.20138047    -0.13140
C139        C  0.30192806  0.77549508  0.23890027     0.00510
C140        C  0.35137252  0.75326595  0.25118289    -0.11660
C141        C  0.40118704  0.76401341  0.22996898     0.03010
C142        C  0.39967959  0.80012109  0.19200825    -0.11080
H143        H  0.27127252  0.83453513  0.19449315     0.08600
H144        H  0.35110996  0.72699353  0.27981961     0.06130
H145        H  0.43525183  0.81258209  0.17676352     0.05980
C146        C  0.35146722  0.80598168  0.82389100     0.03010
C147        C  0.30284583  0.78128802  0.81238762    -0.13140
C148        C  0.30031385  0.74025200  0.78199503     0.00510
C149        C  0.34982375  0.72158172  0.76821249    -0.11660
C150        C  0.39886654  0.74451563  0.77115367     0.03010
C151        C  0.39818623  0.78682890  0.79983969    -0.11080
H152        H  0.26707582  0.79553719  0.82609628     0.08600
H153        H  0.34874195  0.69012655  0.74810438     0.06130
H154        H  0.43308933  0.80658983  0.80072464     0.05980
C155        C  0.10367132  0.66091766  0.32597666     0.03010
C156        C  0.15052747  0.68857560  0.31714907    -0.13140
C157        C  0.15046681  0.73006016  0.28551524     0.00510
C158        C  0.09973546  0.74410859  0.26611664    -0.11660
C159        C  0.05364776  0.71751907  0.26899324     0.03010
C160        C  0.05685727  0.67608163  0.29880532    -0.11080
H161        H  0.18661533  0.67613756  0.33395514     0.08600
H162        H  0.09678714  0.77551670  0.24432197     0.06130
H163        H  0.02227324  0.65553846  0.30115044     0.05980
C164        C  0.10894079  0.31927646  0.30435743     0.03010
C165        C  0.15789908  0.29397050  0.29336552    -0.13140
C166        C  0.16068780  0.25548742  0.25917015     0.00510
C167        C  0.11053719  0.24032264  0.23894270    -0.11660
C168        C  0.06080589  0.26303590  0.24464560     0.03010
C169        C  0.06252605  0.30281827  0.27623406    -0.11080
H170        H  0.19459787  0.30298934  0.31176169     0.08600
H171        H  0.11044381  0.20890753  0.21909440     0.06130
H172        H  0.02620630  0.32103362  0.27778448     0.05980
C173        C  0.06071860  0.32072494  0.66813257     0.03010
C174        C  0.01258562  0.29574608  0.67881234    -0.13140
C175        C  0.00926978  0.25746285  0.71506693     0.00510
C176        C  0.05807275  0.24287806  0.73764501    -0.11660
C177        C  0.10729197  0.26352828  0.72810303     0.03010
C178        C  0.10649905  0.30377477  0.69622742    -0.11080
H179        H  0.97849047  0.30697496  0.65870499     0.08600
H180        H  0.05773720  0.21442049  0.76378708     0.06130
H181        H  0.14350314  0.32020311  0.69202990     0.05980
C182        C  0.09794492  0.64101805  0.66665577     0.03010
C183        C  0.14604566  0.65725588  0.69205918    -0.13140
C184        C  0.14848430  0.69608064  0.72545580     0.00510
C185        C  0.09846108  0.71676614  0.73395786    -0.11660
C186        C  0.04802381  0.70129308  0.71555704     0.03010
C187        C  0.04958449  0.66501838  0.67958762    -0.11080
H188        H  0.18137591  0.63852278  0.68667637     0.08600
H189        H  0.09837309  0.74410420  0.75999535     0.06130
H190        H  0.01275783  0.65376109  0.66359628     0.05980
C191        C  0.08726856  0.45572500  0.48561192     0.00450
C192        C  0.09427488  0.50568242  0.48840483     0.00450
C193        C  0.05311844  0.56559805  0.55056763    -0.01960
C194        C  0.09426032  0.53352407  0.54031867     0.07720
C195        C  0.13614997  0.53345254  0.57855815    -0.02080
C196        C  0.13709155  0.56505914  0.62069790    -0.02080
C197        C  0.09732955  0.60017076  0.62635457     0.07850
C198        C  0.05126531  0.58994839  0.59701480    -0.02280
Br199      Br  0.99851690  0.56450944  0.63877650    -0.00820
Br200      Br  0.99267233  0.57172966  0.50609635    -0.00900
Br201      Br  0.18282524  0.54892020  0.67775143    -0.00860
Br202      Br  0.19543313  0.49246768  0.57364158    -0.00840
C203        C  0.11786288  0.39592140  0.55606864    -0.01960
C204        C  0.07749350  0.42520818  0.53558405     0.07720
C205        C  0.02972386  0.42314517  0.56402463    -0.02080
C206        C  0.02311977  0.39091877  0.60648634    -0.02080
C207        C  0.06526585  0.36106437  0.62563552     0.07850
C208        C  0.11467488  0.37349654  0.60448245    -0.02280
Br209      Br  0.16699461  0.39706633  0.65066588    -0.00820
Br210      Br  0.18188413  0.39092286  0.52121245    -0.00900
Br211      Br  0.96034908  0.39727208  0.64526403    -0.00860
Br212      Br  0.97187695  0.46376950  0.54573213    -0.00840
C213        C  0.05524830  0.37596860  0.36585776    -0.01960
C214        C  0.10462323  0.36041472  0.34578680     0.07720
C215        C  0.14764157  0.38798174  0.36573289    -0.02080
C216        C  0.14114431  0.42154356  0.40600208    -0.02080
C217        C  0.09338293  0.42621343  0.43436055     0.07850
C218        C  0.05146000  0.39909905  0.41345636    -0.02280
Br219      Br  0.98358503  0.39712746  0.44447710    -0.00820
Br220      Br  0.99947365  0.39565187  0.31912022    -0.00900
Br221      Br  0.19913761  0.46174155  0.42117686    -0.00860
Br222      Br  0.21433151  0.38823182  0.33220780    -0.00840
C223        C  0.13401074  0.61480487  0.40875871    -0.01960
C224        C  0.10285088  0.61710881  0.36345978     0.07720
C225        C  0.06985981  0.57735472  0.35770655    -0.02080
C226        C  0.06437591  0.54283183  0.39757414    -0.02080
C227        C  0.10005246  0.53934305  0.44050621     0.07850
C228        C  0.13803645  0.57505306  0.44109399    -0.02280
Br229      Br  0.20271253  0.56784751  0.47940029    -0.00820
Br230      Br  0.16129139  0.66904610  0.43595405    -0.00900
Br231      Br  0.00345304  0.50440158  0.39420846    -0.00860
Br232      Br  0.03559484  0.56478278  0.29413070    -0.00840
C233        C  0.36122941  0.03761498  0.89340813    -0.01960
C234        C  0.33052583  0.03713203  0.93816835     0.07720
C235        C  0.28852182  0.07038702  0.93548661    -0.02080
C236        C  0.28362545  0.10614307  0.89678888    -0.02080
C237        C  0.31358261  0.10672491  0.85152965     0.07850
C238        C  0.34897844  0.06776231  0.85007633    -0.02280
Br239      Br  0.37462591  0.04888178  0.78644854    -0.00820
Br240      Br  0.42433320  0.00075257  0.89060412    -0.00900
Br241      Br  0.23707933  0.15548484  0.91074011    -0.00860
Br242      Br  0.23108728  0.06299813  0.98085109    -0.00840
C243        C  0.38809818  0.06949284  0.04319363    -0.01960
C244        C  0.34726440  0.03630805  0.03885171     0.07720
C245        C  0.31390873  0.03441230  0.08197338    -0.02080
C246        C  0.32081235  0.06446520  0.12508331    -0.02080
C247        C  0.35824429  0.10149463  0.12661619     0.07850
C248        C  0.39240387  0.10159080  0.08395684    -0.02280
Br249      Br  0.44797769  0.14507920  0.07820747    -0.00820
Br250      Br  0.44528356  0.06605436  0.99656193    -0.00900
Br251      Br  0.28334638  0.04913553  0.18540621    -0.00860
Br252      Br  0.25700562  0.99083561  0.08315663    -0.00840
C253        C  0.31641317  0.88755141  0.04682719    -0.01960
C254        C  0.34923769  0.92660801  0.04164173     0.07720
C255        C  0.38472403  0.93188829  0.08508554    -0.02080
C256        C  0.38197150  0.90233841  0.13018943    -0.02080
C257        C  0.35177844  0.86115140  0.13065481     0.07850
C258        C  0.32828198  0.85225383  0.08301986    -0.02280
Br259      Br  0.36518647  0.80676646  0.04834992    -0.00820
Br260      Br  0.26150015  0.87427666  0.99887394    -0.00900
Br261      Br  0.42207106  0.91688951  0.19038823    -0.00860
Br262      Br  0.44335958  0.97292341  0.08236344    -0.00840
C263        C  0.30768583  0.91911611  0.90265322    -0.01960
C264        C  0.34922083  0.92445564  0.94034823     0.07720
C265        C  0.39415315  0.89575830  0.93147960    -0.02080
C266        C  0.39762446  0.86670163  0.88791087    -0.02080
C267        C  0.35209821  0.85104152  0.85997463     0.07850
C268        C  0.30911603  0.88365494  0.86428600    -0.02280
Br269      Br  0.26070080  0.89115832  0.80797383    -0.00820
Br270      Br  0.24591894  0.95825620  0.90468255    -0.00900
Br271      Br  0.45521973  0.88475675  0.84703207    -0.00860
Br272      Br  0.45763575  0.90505534  0.97146685    -0.00840
C273        C  0.21342442  0.23525114  0.38429049    -0.01960
C274        C  0.25839070  0.25721637  0.40516506     0.07720
C275        C  0.30709050  0.25411175  0.38143233    -0.02080
C276        C  0.31171044  0.22432456  0.34109054    -0.02080
C277        C  0.26550100  0.21062057  0.31511091     0.07850
C278        C  0.21884521  0.20825883  0.34195524    -0.02280
Br279      Br  0.16537980  0.16523273  0.32141618    -0.00820
Br280      Br  0.14585355  0.23834573  0.41582161    -0.00900
Br281      Br  0.36618426  0.17806386  0.34980929    -0.00860
Br282      Br  0.36884145  0.27559835  0.41808011    -0.00840
C283        C  0.23508900  0.43641395  0.06021550    -0.01960
C284        C  0.23398989  0.47046850  0.02236055     0.07720
C285        C  0.24923377  0.45529217  0.97497175    -0.02080
C286        C  0.23496431  0.41064175  0.96125836    -0.02080
C287        C  0.20864422  0.38286756  0.99679130     0.07850
C288        C  0.20718314  0.39697927  0.04729378    -0.02280
Br289      Br  0.16036893  0.36860634  0.09482688    -0.00820
Br290      Br  0.24823819  0.45206806  0.12926315    -0.00900
Br291      Br  0.24880631  0.39008759  0.89505715    -0.00860
Br292      Br  0.27118661  0.49921476  0.92562040    -0.00840
C293        C  0.23464063  0.27984347  0.16560442    -0.01960
C294        C  0.21505648  0.23840713  0.18332941     0.07720
C295        C  0.20485079  0.20173381  0.15138643    -0.02080
C296        C  0.21399582  0.20732614  0.09994889    -0.02080
C297        C  0.22769938  0.25072499  0.08001382     0.07850
C298        C  0.24383176  0.28566000  0.11463927    -0.02280
Br299      Br  0.29337290  0.33498154  0.10084020    -0.00820
Br300      Br  0.25260830  0.32794963  0.21270311    -0.00900
Br301      Br  0.21871320  0.15364850  0.05988100    -0.00860
Br302      Br  0.17732192  0.14423606  0.17805885    -0.00840
C303        C  0.23450090  0.28950995  0.65942824    -0.01960
C304        C  0.20667657  0.24996613  0.67606065     0.07720
C305        C  0.16533357  0.23456385  0.64352771    -0.02080
C306        C  0.14987764  0.26191074  0.60122925    -0.02080
C307        C  0.19041626  0.28522271  0.57712736     0.07850
C308        C  0.23070125  0.30330751  0.60823565    -0.02280
Br309      Br  0.28268295  0.34366425  0.58016389    -0.00820
Br310      Br  0.26833235  0.33077071  0.70480964    -0.00900
Br311      Br  0.08592977  0.25096627  0.56302626    -0.00860
Br312      Br  0.12788265  0.17913202  0.65812919    -0.00840
C313        C  0.17020160  0.28292082  0.83099644    -0.01960
C314        C  0.15704882  0.24199692  0.80841973     0.07720
C315        C  0.13553062  0.20633057  0.83842284    -0.02080
C316        C  0.12464520  0.21501743  0.88989718    -0.02080
C317        C  0.14270201  0.25681457  0.91077869     0.07850
C318        C  0.17725325  0.28221204  0.88179886    -0.02280
Br319      Br  0.24825282  0.26805479  0.90050546    -0.00820
Br320      Br  0.17762024  0.34049817  0.79639966    -0.00900
Br321      Br  0.09121052  0.16864746  0.92979830    -0.00860
Br322      Br  0.12415867  0.14673837  0.81024716    -0.00840
C323        C  0.42173030  0.40463678  0.98944522    -0.01960
C324        C  0.41392655  0.37105952  0.95347142     0.07720
C325        C  0.45656610  0.36273433  0.91970226    -0.02080
C326        C  0.99945535  0.39163818  0.92145345    -0.02080
C327        C  0.01393297  0.40508950  0.97012328     0.07850
C328        C  0.47393270  0.40785812  0.00668896    -0.02280
Br329      Br  0.48758026  0.40276257  0.07910816    -0.00820
Br330      Br  0.36473311  0.42370579  0.03100790    -0.00900
Br331      Br  0.04703525  0.39430354  0.86535732    -0.00860
Br332      Br  0.98693055  0.30336941  0.90921846    -0.00840
C333        C  0.42540091  0.28267718  0.80540063    -0.01960
C334        C  0.45432755  0.24409907  0.79433928     0.07720
C335        C  0.45558585  0.20634041  0.82843537    -0.02080
C336        C  0.42361851  0.20668799  0.87129914    -0.02080
C337        C  0.38901585  0.24433893  0.87919745     0.07850
C338        C  0.38517133  0.27800357  0.83912713    -0.02280
Br339      Br  0.32142586  0.30872555  0.81592449    -0.00820
Br340      Br  0.43367774  0.33937200  0.76792321    -0.00900
Br341      Br  0.41783018  0.15064550  0.90944912    -0.00860
Br342      Br  0.49458309  0.15178551  0.81260563    -0.00840
C343        C  0.44008128  0.27536463  0.15474572    -0.01960
C344        C  0.49170149  0.25787281  0.16403657     0.07720
C345        C  0.51836710  0.24173369  0.12103813    -0.02080
C346        C  0.49491232  0.24766087  0.07226414    -0.02080
C347        C  0.44035634  0.25521326  0.06754217     0.07850
C348        C  0.41318697  0.26367921  0.11063900    -0.02280
Br349      Br  0.34794688  0.23375406  0.11249084    -0.00820
Br350      Br  0.40653335  0.31776771  0.19778616    -0.00900
Br351      Br  0.53378204  0.23735905  0.01334021    -0.00860
Br352      Br  0.07687507  0.20116187  0.12547863    -0.00840
C353        C  0.42026727  0.16085281  0.64749363    -0.01960
C354        C  0.41436756  0.20552940  0.66470643     0.07720
C355        C  0.41157301  0.24183976  0.62913794    -0.02080
C356        C  0.43128900  0.23544810  0.58072098    -0.02080
C357        C  0.94255781  0.19052033  0.56571158     0.07850
C358        C  0.92491592  0.15429792  0.59608700    -0.02280
Br359      Br  0.91293573  0.09580791  0.56791973    -0.00820
Br360      Br  0.42887939  0.10926313  0.69231495    -0.00900
Br361      Br  0.44541138  0.28781864  0.53869847    -0.00860
Br362      Br  0.37975457  0.29845075  0.64689722    -0.00840
C363        C  0.53121249  0.15466756  0.35621651    -0.01960
C364        C  0.02377364  0.18796271  0.39434483     0.07720
C365        C  0.00332198  0.23133991  0.37966578    -0.02080
C366        C  0.97910507  0.23819538  0.33225778    -0.02080
C367        C  0.48418923  0.20491803  0.29536545     0.07850
C368        C  0.51271425  0.16433937  0.30656436    -0.02280
Br369      Br  0.52779230  0.12265637  0.25298404    -0.00820
Br370      Br  0.56750244  0.09625921  0.36688707    -0.00900
Br371      Br  0.93776666  0.29275786  0.31863769    -0.00860
Br372      Br  0.01285353  0.28262631  0.42317808    -0.00840
C373        C  0.26336634  0.09198992  0.60311426    -0.01960
C374        C  0.24822812  0.05848242  0.56970489     0.07720
C375        C  0.21783402  0.07157976  0.52687697    -0.02080
C376        C  0.23072414  0.11242825  0.50342180    -0.02080
C377        C  0.25880506  0.14454870  0.53156312     0.07850
C378        C  0.27137681  0.13545782  0.58298835    -0.02280
Br379      Br  0.29511489  0.18275105  0.62547447    -0.00820
Br380      Br  0.28005571  0.07604997  0.67241856    -0.00900
Br381      Br  0.21146486  0.12308131  0.43400446    -0.00860
Br382      Br  0.17247701  0.02938109  0.49354492    -0.00840
C383        C  0.51486804  0.00799300  0.49284767    -0.01960
C384        C  0.49624415  0.00003100  0.54154273     0.07720
C385        C  0.52612406  0.01908690  0.58128528    -0.02080
C386        C  0.56240355  0.05374897  0.56892973    -0.02080
C387        C  0.55587358  0.07667515  0.52130033     0.07850
C388        C  0.52655731  0.05334186  0.48324234    -0.02280
Br389      Br  0.46987399  0.08290347  0.44339651    -0.00820
Br390      Br  0.49605328  0.96942482  0.43717410    -0.00900
Br391      Br  0.11417184  0.07269149  0.61778778    -0.00860
Br392      Br  0.51319566  0.00386370  0.65054072    -0.00840
C393        C  0.40752673  0.59152704  0.03059738    -0.01960
C394        C  0.38362817  0.61203405  0.98670406     0.07720
C395        C  0.37516995  0.58233321  0.94516785    -0.02080
C396        C  0.40088585  0.53850640  0.94755401    -0.02080
C397        C  0.92400411  0.52279365  0.99419188     0.07850
C398        C  0.90510691  0.54460968  0.03637507    -0.02280
Br399      Br  0.91290875  0.51866480  0.10357092    -0.00820
Br400      Br  0.97849447  0.61091352  0.04645678    -0.00900
Br401      Br  0.41124391  0.50354759  0.88802065    -0.00860
Br402      Br  0.33479078  0.60142889  0.88549467    -0.00840
C403        C  0.51457820  0.67346820  0.82629025    -0.01960
C404        C  0.51116838  0.71595164  0.80109965     0.07720
C405        C  0.51680655  0.75603855  0.82872505    -0.02080
C406        C  0.50766723  0.75412312  0.88068705    -0.02080
C407        C  0.49081042  0.71245795  0.90221771     0.07850
C408        C  0.50227246  0.67150956  0.87679375    -0.02280
Br409      Br  0.49727917  0.61213631  0.90819109    -0.00820
Br410      Br  0.53531000  0.61808813  0.79299698    -0.00900
Br411      Br  0.52160531  0.80615981  0.92130245    -0.00860
Br412      Br  0.53622560  0.81186672  0.79447650    -0.00840
C413        C  0.48879797  0.76460358  0.09986261    -0.01960
C414        C  0.45903092  0.72444237  0.08729216     0.07720
C415        C  0.46087524  0.68784075  0.12396248    -0.02080
C416        C  0.49804157  0.68876770  0.16252008    -0.02080
C417        C  0.51035580  0.73064739  0.18209839     0.07850
C418        C  0.51105103  0.76856161  0.14910490    -0.02280
Br419      Br  0.03975263  0.82561782  0.17191540    -0.00820
Br420      Br  0.49675285  0.81671716  0.05523841    -0.00900
Br421      Br  0.52918339  0.63279211  0.18866465    -0.00860
Br422      Br  0.40873113  0.64207939  0.13855309    -0.00840
C423        C  0.50061365  0.80902177  0.55444147    -0.01960
C424        C  0.49261967  0.77657899  0.51634537     0.07720
C425        C  0.46177133  0.79163305  0.47198413    -0.02080
C426        C  0.45008858  0.83800143  0.46379259    -0.02080
C427        C  0.44644332  0.86437070  0.50620745     0.07850
C428        C  0.47754262  0.85249670  0.54946053    -0.02120
Br429      Br  0.48749047  0.89463545  0.60355343    -0.00820
Br430      Br  0.03006125  0.79215304  0.61965814    -0.00900
Br431      Br  0.42118109  0.86099429  0.39943889    -0.00860
Br432      Br  0.40174765  0.75991521  0.44366897    -0.00840
C433        C  0.43213486  0.68204282  0.32387674    -0.01960
C434        C  0.44872889  0.72658484  0.30939848     0.07720
C435        C  0.47877748  0.75204304  0.34299974    -0.02080
C436        C  0.00098424  0.72972254  0.38560297    -0.02080
C437        C  0.97714630  0.68901702  0.40623504     0.07850
C438        C  0.44227668  0.66516714  0.37371677    -0.02280
Br439      Br  0.41653489  0.60590720  0.39320470    -0.00820
Br440      Br  0.40816003  0.64046280  0.27284808    -0.00900
Br441      Br  0.06989451  0.75211216  0.40394945    -0.00860
Br442      Br  0.00303811  0.81224520  0.32114108    -0.00840
C443        C  0.89659824  0.65366957  0.62194792    -0.01960
C444        C  0.89373192  0.68738964  0.58378915     0.07720
C445        C  0.38376094  0.73231790  0.60076292    -0.02080
C446        C  0.40197967  0.74545306  0.64910083    -0.02080
C447        C  0.42251802  0.71199285  0.68340678     0.07850
C448        C  0.91292647  0.66539137  0.67176279    -0.02280
Br449      Br  0.91995787  0.61855166  0.72360377    -0.00820
Br450      Br  0.87643492  0.59308157  0.60317566    -0.00900
Br451      Br  0.40175979  0.80916583  0.66684201    -0.00860
Br452      Br  0.35527217  0.77756775  0.55517896    -0.00840
C453        C  0.16398915  0.68712272  0.04383429    -0.01960
C454        C  0.21712024  0.67052649  0.05485107     0.07720
C455        C  0.22199234  0.62760329  0.07974971    -0.02080
C456        C  0.17576679  0.60378962  0.09118297    -0.02080
C457        C  0.12890935  0.61507750  0.06317182     0.07850
C458        C  0.12559538  0.65613049  0.03675639    -0.02280
Br459      Br  0.07351810  0.67179639  0.98647398    -0.00820
Br460      Br  0.12366222  0.73549703  0.07429863    -0.00900
Br461      Br  0.17851119  0.55435584  0.14022543    -0.00860
Br462      Br  0.28903850  0.59702128  0.08968053    -0.00840
C463        C  0.18404286  0.68047024  0.84564900    -0.01960
C464        C  0.18461218  0.71874207  0.81387435     0.07720
C465        C  0.17554806  0.76256154  0.83299324    -0.02080
C466        C  0.17863407  0.76930399  0.88539841    -0.02080
C467        C  0.18983391  0.73153560  0.91827153     0.07850
C468        C  0.18461790  0.68625813  0.89774038    -0.02280
Br469      Br  0.18542932  0.62936881  0.93694277    -0.00820
Br470      Br  0.18868784  0.61993968  0.81706199    -0.00900
Br471      Br  0.17192224  0.83057836  0.90946392    -0.00860
Br472      Br  0.16622380  0.81387076  0.78676655    -0.00840
C473        C  0.18273277  0.80310162  0.17889484    -0.01960
C474        C  0.18707433  0.75998135  0.20373328     0.07720
C475        C  0.19738667  0.72209190  0.17618879    -0.02080
C476        C  0.23384667  0.72977447  0.14022664    -0.02080
C477        C  0.22902644  0.77029739  0.10812889     0.07850
C478        C  0.19805239  0.80674163  0.12778473    -0.02280
Br479      Br  0.17687091  0.86029864  0.08961721    -0.00820
Br480      Br  0.16459510  0.85651181  0.21647617    -0.00900
Br481      Br  0.29779088  0.69611112  0.15836068    -0.00860
Br482      Br  0.18532224  0.66076194  0.20174859    -0.00840
C483        C  0.16909102  0.85805239  0.54999579    -0.01960
C484        C  0.14333374  0.84131900  0.50593278     0.07720
C485        C  0.13735201  0.87357819  0.46492817    -0.02080
C486        C  0.17050596  0.91237113  0.46513227    -0.02080
C487        C  0.19522229  0.92391907  0.51165025     0.07850
C488        C  0.17221412  0.90481034  0.55424286    -0.02280
Br489      Br  0.18017317  0.93109395  0.61991952    -0.00820
Br490      Br  0.23922562  0.83416326  0.56579129    -0.00900
Br491      Br  0.18552518  0.94399258  0.40286161    -0.00860
Br492      Br  0.09132371  0.86357967  0.40809708    -0.00840
C493        C  0.28114651  0.79417707  0.40525059    -0.01960
C494        C  0.27133525  0.75229425  0.42993829     0.07720
C495        C  0.27932090  0.71193027  0.40325493    -0.02080
C496        C  0.27658684  0.71405881  0.35037320    -0.02080
C497        C  0.26664743  0.75691720  0.32613070     0.07850
C498        C  0.27501159  0.79724704  0.35300484    -0.02280
Br499      Br  0.27299972  0.85666678  0.31974030    -0.00820
Br500      Br  0.29017483  0.84799328  0.44399612    -0.00900
Br501      Br  0.28417661  0.65878440  0.31235227    -0.00860
Br502      Br  0.29386893  0.65506085  0.43867869    -0.00840
C503        C  0.20872774  0.76067021  0.63696254    -0.01960
C504        C  0.20841462  0.72341174  0.60364768     0.07720
C505        C  0.23921577  0.68425584  0.61875613    -0.02080
C506        C  0.26282178  0.68254636  0.66763668    -0.02080
C507        C  0.26280507  0.72264081  0.69578226     0.07850
C508        C  0.24906760  0.76349854  0.67221120    -0.02280
Br509      Br  0.26841531  0.82181292  0.69953371    -0.00820
Br510      Br  0.15100136  0.80093757  0.65006032    -0.00900
Br511      Br  0.28626353  0.62569361  0.69913286    -0.00860
Br512      Br  0.24127480  0.63127017  0.57802999    -0.00840
C513        C  0.72980761  0.75324623  0.46806737     0.03010
C514        C  0.73449620  0.72964497  0.51436953    -0.13140
C515        C  0.69389440  0.73294023  0.54972741     0.00510
C516        C  0.64885026  0.76021591  0.53698070    -0.11660
C517        C  0.65054310  0.79149459  0.49616885     0.03010
C518        C  0.68530977  0.78157682  0.45810255    -0.11080
H519        H  0.77138220  0.71209672  0.52424822     0.08600
H520        H  0.61861330  0.76471764  0.56411451     0.06130
H521        H  0.68294403  0.80191966  0.42355801     0.05980
C522        C  0.75259962  0.76105464  0.27231294     0.00450
C523        C  0.69888424  0.75348360  0.25767102     0.00450
C524        C  0.75130405  0.72185474  0.74927469     0.00450
C525        C  0.69778905  0.71225355  0.76092551     0.00450
C526        C  0.74554332  0.76547920  0.05355421     0.03010
C527        C  0.71266634  0.77043302  0.00747735    -0.13140
C528        C  0.72049229  0.73748825  0.96733120     0.00510
C529        C  0.75725108  0.70210413  0.97922729    -0.11660
C530        C  0.76508843  0.69125486  0.02956158     0.03010
C531        C  0.78319167  0.73113331  0.05014666    -0.11080
H532        H  0.67902357  0.79353611  0.00600761     0.08600
H533        H  0.77275095  0.67936677  0.95143333     0.06130
H534        H  0.81731254  0.73061738  0.07464487     0.05980
C535        C  0.47976639  0.68001423  0.46306328     0.03010
C536        C  0.52269142  0.69947089  0.48819189    -0.13140
C537        C  0.01226674  0.72798740  0.52747995     0.00510
C538        C  0.48396250  0.70483900  0.56327726    -0.11660
C539        C  0.43735301  0.68413154  0.54671614     0.03010
C540        C  0.43432907  0.67151061  0.49451972    -0.11080
H541        H  0.06272082  0.69434816  0.47671263     0.08600
H542        H  0.98844138  0.71347984  0.60220142     0.06130
H543        H  0.39713179  0.66048208  0.47849714     0.05980
C544        C  0.95263655  0.74066938  0.25552800     0.00450
C545        C  0.00387786  0.73374026  0.23676397     0.00450
C546        C  0.94396147  0.72602131  0.73435759     0.00450
C547        C  0.99843442  0.71722744  0.74685179     0.00450
C548        C  0.93687535  0.71650478  0.03471822     0.03010
C549        C  0.96717786  0.72759875  0.99255074    -0.13140
C550        C  0.95386148  0.71076211  0.94470649     0.00510
C551        C  0.90974653  0.68248117  0.93914349    -0.11660
C552        C  0.88712071  0.66337635  0.98172673     0.03010
C553        C  0.89313392  0.68772510  0.02650011    -0.11080
H554        H  0.00475302  0.74400902  0.99791088     0.08600
H555        H  0.90213925  0.66802658  0.90272629     0.06130
H556        H  0.87057002  0.67589089  0.05728901     0.05980
O557        O  0.91083107  0.00249044  0.50462457    -0.74540
O558        O  0.77807345  0.94864360  0.47837325    -0.74570
O559        O  0.80679760  0.02655518  0.51241652    -0.74630
O560        O  0.88503929  0.92234196  0.47498493    -0.74680
O561        O  0.87942576  0.89609398  0.55391821    -0.74610
O562        O  0.81304546  0.00384183  0.59329692    -0.74590
O563        O  0.77675233  0.92841227  0.55948682    -0.74560
O564        O  0.91662665  0.97455668  0.58314315    -0.74630
Ni565      Ni  0.84520177  0.97594582  0.48954420     1.25410
Ni566      Ni  0.84645981  0.94964972  0.57542008     1.25360
C567        C  0.93852133  0.99200956  0.54430817     0.87640
C568        C  0.75263931  0.93472407  0.51642238     0.87570
C569        C  0.79184333  0.02846725  0.55819038     0.87600
C570        C  0.90090803  0.89536557  0.51112986     0.87770
C571        C  0.52796401  0.17752438  0.44973070     0.03010
C572        C  0.56737418  0.14814816  0.47104975    -0.13140
C573        C  0.05922858  0.12731835  0.51807342     0.00510
C574        C  0.52673639  0.14999726  0.55107433    -0.11660
C575        C  0.48665055  0.17967391  0.53201554     0.03010
C576        C  0.48598236  0.19157834  0.48074402    -0.11080
H577        H  0.09923565  0.13569912  0.44900949     0.08600
H578        H  0.02503820  0.13743550  0.58970033     0.06130
H579        H  0.45188393  0.20998542  0.46475777     0.05980
C580        C  0.96962952  0.21675781  0.24267501     0.00450
C581        C  0.00699207  0.24456298  0.21785544     0.00450
C582        C  0.91316483  0.21440355  0.71902235     0.00450
C583        C  0.95770354  0.23697238  0.74006719     0.00450
C584        C  0.87806510  0.25995922  0.93235234     0.03010
C585        C  0.85941142  0.30534593  0.93602153    -0.13140
C586        C  0.88146418  0.33298471  0.97126570     0.00510
C587        C  0.89702143  0.31368505  0.01710800    -0.11660
C588        C  0.91195975  0.26828580  0.01992099     0.03010
C589        C  0.90390033  0.24085637  0.97724582    -0.11080
H590        H  0.84187788  0.32451190  0.90562064     0.08600
H591        H  0.90866044  0.33539204  0.04795167     0.06130
H592        H  0.92198624  0.20770194  0.97956316     0.05980
C593        C  0.65898625  0.24188481  0.75368066     0.00450
C594        C  0.70769189  0.23347484  0.73035424     0.00450
C595        C  0.64139093  0.27188414  0.96408075     0.03010
C596        C  0.66858354  0.24462808  0.00098832    -0.13140
C597        C  0.71400969  0.26249321  0.02623317     0.00510
C598        C  0.73292449  0.30323406  0.00670404    -0.11660
C599        C  0.69635672  0.33515397  0.98751333     0.03010
C600        C  0.64680848  0.31981010  0.96993830    -0.11080
H601        H  0.65290553  0.21151193  0.01018886     0.08600
H602        H  0.77377957  0.31243396  0.01170004     0.06130
H603        H  0.62046325  0.34361175  0.94960559     0.05980
C604        C  0.76242123  0.25448823  0.45973965     0.03010
C605        C  0.73166747  0.28236123  0.49008845    -0.13140
C606        C  0.70862153  0.26179868  0.53222132     0.00510
C607        C  0.71222661  0.21443464  0.53734741    -0.11660
C608        C  0.75267994  0.19136722  0.51591292     0.03010
C609        C  0.78059269  0.21164020  0.47818657    -0.11080
H610        H  0.72221949  0.31688705  0.47806781     0.08600
H611        H  0.68859236  0.19507285  0.56337055     0.06130
H612        H  0.80735092  0.19058422  0.45702425     0.05980
C613        C  0.71388610  0.23242593  0.23712380     0.00450
C614        C  0.76168416  0.21220379  0.25889720     0.00450
O615        O  0.65130821  0.48630174  0.05786320    -0.74540
O616        O  0.50215340  0.49654275  0.03983737    -0.74570
O617        O  0.57705719  0.43086887  0.02574829    -0.74630
O618        O  0.58083841  0.54896694  0.07490540    -0.74680
O619        O  0.59619467  0.57354411  0.99636720    -0.74610
O620        O  0.57860238  0.45591478  0.94652616    -0.74590
O621        O  0.51186776  0.52364058  0.96199741    -0.74560
O622        O  0.66136019  0.50632525  0.97721698    -0.74630
Ni623      Ni  0.57706743  0.48955808  0.05243474     1.25410
Ni624      Ni  0.58739689  0.51625152  0.96743129     1.25360
C625        C  0.68074563  0.49183674  0.01972071     0.87640
C626        C  0.48185033  0.51194720  0.99792950     0.87570
C627        C  0.56337257  0.42740704  0.97985934     0.87600
C628        C  0.59786907  0.57859427  0.04417098     0.87770
C629        C  0.84683728  0.95609921  0.98986079     0.00450
C630        C  0.84146895  0.00621488  0.98873965     0.00450
C631        C  0.86151288  0.13890149  0.17091886     0.03010
C632        C  0.81447668  0.15719456  0.19424119    -0.13140
C633        C  0.81352959  0.19514617  0.22887609     0.00510
C634        C  0.86468835  0.21501566  0.23894916    -0.11660
C635        C  0.91442595  0.19726480  0.22161550     0.03010
C636        C  0.91100963  0.15851541  0.18889148    -0.11080
H637        H  0.77824406  0.14165569  0.18414034     0.08600
H638        H  0.86581750  0.24450113  0.26241294     0.06130
H639        H  0.94777800  0.14330003  0.17784195     0.05980
C640        C  0.81080192  0.14728053  0.80864505     0.03010
C641        C  0.85799095  0.16140536  0.78334772    -0.13140
C642        C  0.86077139  0.19928311  0.74772625     0.00510
C643        C  0.81138748  0.22114296  0.73452123    -0.11660
C644        C  0.76081123  0.20930110  0.75441723     0.03010
C645        C  0.76273498  0.17226572  0.79220134    -0.11080
H646        H  0.89320446  0.14197406  0.79167572     0.08600
H647        H  0.81286070  0.24709853  0.70585170     0.06130
H648        H  0.72638651  0.16103988  0.80724068     0.05980
C649        C  0.85204403  0.82379562  0.17510289     0.03010
C650        C  0.80451849  0.81214533  0.20137719    -0.13140
C651        C  0.80192584  0.77548989  0.23889735     0.00510
C652        C  0.85137070  0.75326047  0.25117905    -0.11660
C653        C  0.90118523  0.76400874  0.22996541     0.03010
C654        C  0.89967676  0.80011665  0.19200494    -0.11080
H655        H  0.77127004  0.83453002  0.19449063     0.08600
H656        H  0.85110872  0.72698793  0.27981568     0.06130
H657        H  0.93524851  0.81257932  0.17676120     0.05980
C658        C  0.85146664  0.80598005  0.82389162     0.03010
C659        C  0.80284572  0.78128582  0.81238828    -0.13140
C660        C  0.80031429  0.74024938  0.78199624     0.00510
C661        C  0.84982438  0.72157949  0.76821398    -0.11660
C662        C  0.89886665  0.74451418  0.77115452     0.03010
C663        C  0.89818591  0.78682757  0.79984042    -0.11080
H664        H  0.76707570  0.79553516  0.82609639     0.08600
H665        H  0.84874299  0.69012400  0.74810639     0.06130
H666        H  0.93308882  0.80658874  0.80072553     0.05980
C667        C  0.60366954  0.66091658  0.32597956     0.03010
C668        C  0.65052588  0.68857439  0.31715276    -0.13140
C669        C  0.65046505  0.73006027  0.28552114     0.00510
C670        C  0.59973326  0.74411064  0.26612533    -0.11660
C671        C  0.55364655  0.71751979  0.26899814     0.03010
C672        C  0.55685583  0.67608114  0.29880813    -0.11080
H673        H  0.68661376  0.67613531  0.33395779     0.08600
H674        H  0.59678428  0.77552058  0.24433379     0.06130
H675        H  0.52227192  0.65553768  0.30115162     0.05980
C676        C  0.60893838  0.31928006  0.30435369     0.03010
C677        C  0.65789617  0.29397200  0.29336482    -0.13140
C678        C  0.66068508  0.25548877  0.25916952     0.00510
C679        C  0.61053431  0.24032481  0.23894116    -0.11660
C680        C  0.56080452  0.26304254  0.24463789     0.03010
C681        C  0.56252489  0.30282535  0.27622567    -0.11080
H682        H  0.69459418  0.30298949  0.31176356     0.08600
H683        H  0.61043872  0.20890709  0.21909673     0.06130
H684        H  0.52620606  0.32104302  0.27777252     0.05980
C685        C  0.56071750  0.32072643  0.66813551     0.03010
C686        C  0.51258350  0.29574843  0.67881485    -0.13140
C687        C  0.50926837  0.25746523  0.71507014     0.00510
C688        C  0.55807062  0.24288050  0.73764919    -0.11660
C689        C  0.60729004  0.26353064  0.72810782     0.03010
C690        C  0.60649732  0.30377689  0.69623146    -0.11080
H691        H  0.47849571  0.30697597  0.65871157     0.08600
H692        H  0.55773483  0.21442305  0.76379145     0.06130
H693        H  0.64350126  0.32020595  0.69203478     0.05980
C694        C  0.59794476  0.64101716  0.66665621     0.03010
C695        C  0.64604555  0.65725392  0.69206049    -0.13140
C696        C  0.64848448  0.69607803  0.72545800     0.00510
C697        C  0.59846137  0.71676362  0.73396059    -0.11660
C698        C  0.54802401  0.70129248  0.71555761     0.03010
C699        C  0.54958464  0.66501880  0.67958688    -0.11080
H700        H  0.68137560  0.63852048  0.68667769     0.08600
H701        H  0.59837344  0.74410038  0.75999969     0.06130
H702        H  0.51275806  0.65376335  0.66359344     0.05980
C703        C  0.58726710  0.45572382  0.48561271     0.00450
C704        C  0.59427293  0.50568110  0.48840583     0.00450
C705        C  0.55311738  0.56559761  0.55056814    -0.01960
C706        C  0.59425851  0.53352279  0.54031952     0.07720
C707        C  0.63614805  0.53345059  0.57855898    -0.02080
C708        C  0.63709033  0.56505741  0.62069856    -0.02080
C709        C  0.59732901  0.60016978  0.62635504     0.07850
C710        C  0.55126466  0.58994813  0.59701514    -0.02280
Br711      Br  0.49851511  0.56451063  0.63877656    -0.00820
Br712      Br  0.49267152  0.57173043  0.50609675    -0.00900
Br713      Br  0.68282381  0.54891787  0.67775196    -0.00860
Br714      Br  0.69542997  0.49246425  0.57364190    -0.00840
C715        C  0.61786090  0.39591959  0.55606912    -0.01960
C716        C  0.57749205  0.42520714  0.53558489     0.07720
C717        C  0.52972283  0.42314535  0.56402608    -0.02080
C718        C  0.52311867  0.39091963  0.60648833    -0.02080
C719        C  0.56526451  0.36106503  0.62563759     0.07850
C720        C  0.61467344  0.37349603  0.60448371    -0.02280
Br721      Br  0.66699241  0.39706771  0.65066669    -0.00820
Br722      Br  0.68187996  0.39091687  0.52121017    -0.00900
Br723      Br  0.46034805  0.39727398  0.64526592    -0.00860
Br724      Br  0.47187624  0.46376982  0.54573294    -0.00840
C725        C  0.55524581  0.37597006  0.36585671    -0.01960
C726        C  0.60462052  0.36041710  0.34578441     0.07720
C727        C  0.64763905  0.38798336  0.36573113    -0.02080
C728        C  0.64114239  0.42154382  0.40600175    -0.02080
C729        C  0.59338126  0.42621298  0.43436080     0.07850
C730        C  0.55145818  0.39909902  0.41345629    -0.02280
Br731      Br  0.48358402  0.39712584  0.44447853    -0.00820
Br732      Br  0.49946988  0.39565429  0.31912118    -0.00900
Br733      Br  0.69913667  0.46174013  0.42117842    -0.00860
Br734      Br  0.71432818  0.38823429  0.33220467    -0.00840
C735        C  0.63400930  0.61480285  0.40876037    -0.01960
C736        C  0.60284892  0.61710733  0.36346181     0.07720
C737        C  0.56985720  0.57735362  0.35770857    -0.02080
C738        C  0.56437338  0.54283066  0.39757595    -0.02080
C739        C  0.60005055  0.53934143  0.44050740     0.07850
C740        C  0.63803503  0.57505088  0.44109512    -0.02280
Br741      Br  0.70271087  0.56784490  0.47940167    -0.00820
Br742      Br  0.66128964  0.66904363  0.43595685    -0.00900
Br743      Br  0.50344980  0.50440109  0.39421114    -0.00860
Br744      Br  0.53559096  0.56478198  0.29413331    -0.00840
C745        C  0.86122541  0.03761550  0.89341109    -0.01960
C746        C  0.83052193  0.03713191  0.93817136     0.07720
C747        C  0.78851875  0.07038769  0.93549073    -0.02080
C748        C  0.78362387  0.10614526  0.89679466    -0.02080
C749        C  0.81358065  0.10672746  0.85153524     0.07850
C750        C  0.84897477  0.06776392  0.85008026    -0.02280
Br751      Br  0.87461938  0.04888334  0.78645150    -0.00820
Br752      Br  0.92432877  0.00075285  0.89060540    -0.00900
Br753      Br  0.73708028  0.15548816  0.91074832    -0.00860
Br754      Br  0.73108275  0.06299741  0.98085329    -0.00840
C755        C  0.88809360  0.06948940  0.04319776    -0.01960
C756        C  0.84725931  0.03630556  0.03885478     0.07720
C757        C  0.81390278  0.03441027  0.08197597    -0.02080
C758        C  0.82080583  0.06446341  0.12508609    -0.02080
C759        C  0.85823888  0.10149213  0.12662000     0.07850
C760        C  0.89239901  0.10158703  0.08396118    -0.02280
Br761      Br  0.94797311  0.14507352  0.07821229    -0.00820
Br762      Br  0.94527984  0.06604990  0.99656691    -0.00900
Br763      Br  0.78333700  0.04913515  0.18540764    -0.00860
Br764      Br  0.75699984  0.99083350  0.08315833    -0.00840
C765        C  0.81640704  0.88755142  0.04682719    -0.01960
C766        C  0.84923373  0.92660642  0.04164187     0.07720
C767        C  0.88472123  0.93188474  0.08508511    -0.02080
C768        C  0.88196887  0.90233354  0.13018787    -0.02080
C769        C  0.85177516  0.86114687  0.13065191     0.07850
C770        C  0.82827677  0.85225163  0.08301688    -0.02280
Br771      Br  0.86518175  0.80676895  0.04833951    -0.00820
Br772      Br  0.76149109  0.87428190  0.99887519    -0.00900
Br773      Br  0.92206833  0.91688329  0.19038720    -0.00860
Br774      Br  0.94335681  0.97291978  0.08236424    -0.00840
C775        C  0.80768329  0.91911466  0.90265315    -0.01960
C776        C  0.84921791  0.92445459  0.94034854     0.07720
C777        C  0.89415095  0.89575811  0.93147950    -0.02080
C778        C  0.89762269  0.86670128  0.88791084    -0.02080
C779        C  0.85209670  0.85104013  0.85997508     0.07850
C780        C  0.80911404  0.88365320  0.86428614    -0.02280
Br781      Br  0.76069920  0.89115586  0.80797350    -0.00820
Br782      Br  0.74591732  0.95825614  0.90468013    -0.00900
Br783      Br  0.95521671  0.88475735  0.84703085    -0.00860
Br784      Br  0.95763401  0.90505776  0.97146501    -0.00840
C785        C  0.71342637  0.23525407  0.38429835    -0.01960
C786        C  0.75839601  0.25721326  0.40517361     0.07720
C787        C  0.80709400  0.25410740  0.38143852    -0.02080
C788        C  0.81170966  0.22432249  0.34109419    -0.02080
C789        C  0.76549783  0.21062358  0.31511455     0.07850
C790        C  0.71884227  0.20826495  0.34195990    -0.02280
Br791      Br  0.66537419  0.16524047  0.32142381    -0.00820
Br792      Br  0.64585831  0.23835039  0.41583463    -0.00900
Br793      Br  0.86617925  0.17805758  0.34980911    -0.00860
Br794      Br  0.86884732  0.27558876  0.41808601    -0.00840
C795        C  0.73510068  0.43642265  0.06021024    -0.01960
C796        C  0.73399660  0.47047477  0.02235253     0.07720
C797        C  0.74924133  0.45529662  0.97496472    -0.02080
C798        C  0.73497614  0.41064412  0.96125531    -0.02080
C799        C  0.70865938  0.38287054  0.99679122     0.07850
C800        C  0.70719847  0.39698512  0.04729262    -0.02280
Br801      Br  0.66038467  0.36861473  0.09482801    -0.00820
Br802      Br  0.74825162  0.45208143  0.12925610    -0.00900
Br803      Br  0.74881919  0.39008656  0.89505563    -0.00860
Br804      Br  0.77118892  0.49921781  0.92560939    -0.00840
C805        C  0.73464624  0.27984370  0.16560807    -0.01960
C806        C  0.71505848  0.23840780  0.18333110     0.07720
C807        C  0.70485594  0.20173479  0.15138678    -0.02080
C808        C  0.71400592  0.20732752  0.09995029    -0.02080
C809        C  0.72770946  0.25072674  0.08001681     0.07850
C810        C  0.74384001  0.28566116  0.11464340    -0.02280
Br811      Br  0.79338071  0.33498341  0.10084591    -0.00820
Br812      Br  0.75261412  0.32794815  0.21270861    -0.00900
Br813      Br  0.71872138  0.15365119  0.05988016    -0.00860
Br814      Br  0.67731415  0.14423976  0.17805327    -0.00840
C815        C  0.73450177  0.28951572  0.65943970    -0.01960
C816        C  0.70667717  0.24997107  0.67606926     0.07720
C817        C  0.66533578  0.23456889  0.64353425    -0.02080
C818        C  0.64988436  0.26191454  0.60123328    -0.02080
C819        C  0.69042593  0.28522649  0.57713554     0.07850
C820        C  0.73070495  0.30331464  0.60824761    -0.02280
Br821      Br  0.78268131  0.34367955  0.58018060    -0.00820
Br822      Br  0.76833100  0.33077510  0.70482418    -0.00900
Br823      Br  0.58594328  0.25096544  0.56302170    -0.00860
Br824      Br  0.62788602  0.17913489  0.65813192    -0.00840
C825        C  0.67019861  0.28292517  0.83100138    -0.01960
C826        C  0.65704560  0.24200078  0.80842593     0.07720
C827        C  0.63552923  0.20633459  0.83843080    -0.02080
C828        C  0.62464671  0.21502226  0.88990574    -0.02080
C829        C  0.64270552  0.25681947  0.91078547     0.07850
C830        C  0.67725487  0.28221633  0.88180306    -0.02280
Br831      Br  0.74825569  0.26805753  0.90050312    -0.00820
Br832      Br  0.67761423  0.34050276  0.79640471    -0.00900
Br833      Br  0.59121280  0.16865404  0.92981026    -0.00860
Br834      Br  0.62415687  0.14674172  0.81025717    -0.00840
C835        C  0.92173154  0.40463146  0.98943824    -0.01960
C836        C  0.91393416  0.37104899  0.95346925     0.07720
C837        C  0.95657756  0.36272203  0.91970469    -0.02080
C838        C  0.49944750  0.39164602  0.92145311    -0.02080
C839        C  0.51393094  0.40508968  0.97012452     0.07850
C840        C  0.97393205  0.40785872  0.00668464    -0.02280
Br841      Br  0.98757527  0.40276468  0.07910488    -0.00820
Br842      Br  0.86473127  0.42369843  0.03099744    -0.00900
Br843      Br  0.54702153  0.39431474  0.86535207    -0.00860
Br844      Br  0.48691216  0.30338196  0.90920282    -0.00840
C845        C  0.92541962  0.28267509  0.80540845    -0.01960
C846        C  0.95433782  0.24409430  0.79434033     0.07720
C847        C  0.95559510  0.20633361  0.82843350    -0.02080
C848        C  0.92363140  0.20668127  0.87129982    -0.02080
C849        C  0.88903139  0.24433336  0.87920162     0.07850
C850        C  0.88519024  0.27800203  0.83913504    -0.02280
Br851      Br  0.82144545  0.30872365  0.81592955    -0.00820
Br852      Br  0.93369990  0.33937118  0.76793401    -0.00900
Br853      Br  0.91784366  0.15063829  0.90944864    -0.00860
Br854      Br  0.99458466  0.15177667  0.81259554    -0.00840
C855        C  0.94009329  0.27536351  0.15474922    -0.01960
C856        C  0.99170848  0.25786190  0.16404392     0.07720
C857        C  0.01837047  0.24170944  0.12104977    -0.02080
C858        C  0.99492305  0.24764303  0.07227389    -0.02080
C859        C  0.94036928  0.25520668  0.06754780     0.07850
C860        C  0.91319875  0.26367923  0.11064251    -0.02280
Br861      Br  0.84795681  0.23375684  0.11249581    -0.00820
Br862      Br  0.90654676  0.31776744  0.19778951    -0.00900
Br863      Br  0.03379469  0.23732643  0.01335526    -0.00860
Br864      Br  0.57691123  0.20122987  0.12545649    -0.00840
C865        C  0.92025691  0.16085374  0.64749527    -0.01960
C866        C  0.91436021  0.20553044  0.66470926     0.07720
C867        C  0.91156432  0.24184118  0.62914153    -0.02080
C868        C  0.93127792  0.23544957  0.58072362    -0.02080
C869        C  0.44256996  0.19051897  0.56570958     0.07850
C870        C  0.42492915  0.15429655  0.59608583    -0.02280
Br871      Br  0.41294664  0.09580712  0.56791938    -0.00820
Br872      Br  0.92886501  0.10926276  0.69231493    -0.00900
Br873      Br  0.94540106  0.28782023  0.53870153    -0.00860
Br874      Br  0.87975300  0.29845394  0.64690548    -0.00840
C875        C  0.03121081  0.15466672  0.35622557    -0.01960
C876        C  0.52377593  0.18796278  0.39433691     0.07720
C877        C  0.50332481  0.23134051  0.37965918    -0.02080
C878        C  0.47910872  0.23819745  0.33225113    -0.02080
C879        C  0.98418486  0.20491455  0.29537344     0.07850
C880        C  0.01271013  0.16433618  0.30657368    -0.02280
Br881      Br  0.02778433  0.12264983  0.25299551    -0.00820
Br882      Br  0.06750641  0.09626124  0.36689740    -0.00900
Br883      Br  0.43776968  0.29275972  0.31863311    -0.00860
Br884      Br  0.51285513  0.28262588  0.42317308    -0.00840
C885        C  0.76335539  0.09197253  0.60311858    -0.01960
C886        C  0.74822452  0.05847011  0.56970063     0.07720
C887        C  0.71783837  0.07157350  0.52687005    -0.02080
C888        C  0.73073326  0.11242524  0.50342385    -0.02080
C889        C  0.75881259  0.14454092  0.53157458     0.07850
C890        C  0.77137351  0.13544226  0.58300114    -0.02280
Br891      Br  0.79510390  0.18272707  0.62550254    -0.00820
Br892      Br  0.78002731  0.07602262  0.67242393    -0.00900
Br893      Br  0.71147862  0.12308862  0.43400706    -0.00860
Br894      Br  0.67248535  0.02937907  0.49352553    -0.00840
C895        C  0.01487319  0.00799262  0.49285994    -0.01960
C896        C  0.99624704  0.00003054  0.54155412     0.07720
C897        C  0.02612264  0.01908888  0.58129765    -0.02080
C898        C  0.06240029  0.05375243  0.56894300    -0.02080
C899        C  0.05587131  0.07667773  0.52131291     0.07850
C900        C  0.02655922  0.05334205  0.48325404    -0.02280
Br901      Br  0.96987653  0.08289992  0.44340410    -0.00820
Br902      Br  0.99606508  0.96942197  0.43718683    -0.00900
Br903      Br  0.61417351  0.07269116  0.61777522    -0.00860
Br904      Br  0.01319112  0.00386584  0.65055257    -0.00840
C905        C  0.90751953  0.59152725  0.03059790    -0.01960
C906        C  0.88362920  0.61203606  0.98670128     0.07720
C907        C  0.87517404  0.58233579  0.94516408    -0.02080
C908        C  0.90088769  0.53850826  0.94755222    -0.02080
C909        C  0.42400735  0.52279274  0.99419200     0.07850
C910        C  0.40511529  0.54460980  0.03637668    -0.02280
Br911      Br  0.41292377  0.51866733  0.10357315    -0.00820
Br912      Br  0.47850394  0.61091680  0.04644346    -0.00900
Br913      Br  0.91125099  0.50354982  0.88801952    -0.00860
Br914      Br  0.83480017  0.60143209  0.88548792    -0.00840
C915        C  0.01458426  0.67347166  0.82629196    -0.01960
C916        C  0.01117042  0.71595422  0.80109956     0.07720
C917        C  0.01680900  0.75604232  0.82872301    -0.02080
C918        C  0.00767257  0.75412835  0.88068564    -0.02080
C919        C  0.99081870  0.71246330  0.90221883     0.07850
C920        C  0.00228345  0.67151438  0.87679682    -0.02280
Br921      Br  0.99729385  0.61214172  0.90819688    -0.00820
Br922      Br  0.03531206  0.61809040  0.79299886    -0.00900
Br923      Br  0.02161223  0.80616628  0.92129883    -0.00860
Br924      Br  0.03622444  0.81187006  0.79447121    -0.00840
C925        C  0.98879578  0.76461054  0.09986123    -0.01960
C926        C  0.95902799  0.72445004  0.08728939     0.07720
C927        C  0.96087296  0.68784744  0.12395819    -0.02080
C928        C  0.99804297  0.68877117  0.16251282    -0.02080
C929        C  0.01035659  0.73064971  0.18209431     0.07850
C930        C  0.01105057  0.76856592  0.14910333    -0.02280
Br931      Br  0.53975649  0.82561357  0.17191292    -0.00820
Br932      Br  0.99674770  0.81672704  0.05524079    -0.00900
Br933      Br  0.02917683  0.63279307  0.18865964    -0.00860
Br934      Br  0.90872017  0.64209582  0.13855630    -0.00840
C935        C  0.00061815  0.80901274  0.55444936    -0.01960
C936        C  0.99262372  0.77657166  0.51635115     0.07720
C937        C  0.96177888  0.79162902  0.47198910    -0.02080
C938        C  0.95010078  0.83799818  0.46379886    -0.02080
C939        C  0.94645509  0.86436605  0.50621460     0.07850
C940        C  0.97755234  0.85248983  0.54946801    -0.02120
Br941      Br  0.98750619  0.89463060  0.60355826    -0.00820
Br942      Br  0.53006419  0.79216584  0.61964829    -0.00900
Br943      Br  0.92119830  0.86099481  0.39944487    -0.00860
Br944      Br  0.90175250  0.75991667  0.44367094    -0.00840
C945        C  0.93213409  0.68203921  0.32387438    -0.01960
C946        C  0.94872880  0.72658085  0.30939520     0.07720
C947        C  0.97877733  0.75203922  0.34299645    -0.02080
C948        C  0.50098608  0.72972537  0.38560468    -0.02080
C949        C  0.47714890  0.68901950  0.40623648     0.07850
C950        C  0.94227486  0.66516431  0.37371497    -0.02280
Br951      Br  0.91653301  0.60590453  0.39320363    -0.00820
Br952      Br  0.90815900  0.64045838  0.27284690    -0.00900
Br953      Br  0.56989898  0.75211176  0.40394694    -0.00860
Br954      Br  0.50303760  0.81224936  0.32114516    -0.00840
C955        C  0.39659866  0.65367296  0.62194598    -0.01960
C956        C  0.39373242  0.68739378  0.58378823     0.07720
C957        C  0.88376177  0.73231428  0.60076288    -0.02080
C958        C  0.90197977  0.74545017  0.64910077    -0.02080
C959        C  0.92251778  0.71199058  0.68340762     0.07850
C960        C  0.41292662  0.66539386  0.67176113    -0.02280
Br961      Br  0.41995647  0.61855353  0.72360153    -0.00820
Br962      Br  0.37643439  0.59308566  0.60317207    -0.00900
Br963      Br  0.90175848  0.80916326  0.66684110    -0.00860
Br964      Br  0.85527324  0.77756348  0.55517836    -0.00840
C965        C  0.66399564  0.68712188  0.04382017    -0.01960
C966        C  0.71712539  0.67052613  0.05484560     0.07720
C967        C  0.72199372  0.62760303  0.07974478    -0.02080
C968        C  0.67576621  0.60379045  0.09117288    -0.02080
C969        C  0.62891307  0.61507760  0.06315418     0.07850
C970        C  0.62560437  0.65612887  0.03673444    -0.02280
Br971      Br  0.57353710  0.67179351  0.98644125    -0.00820
Br972      Br  0.62365985  0.73549038  0.07428562    -0.00900
Br973      Br  0.67850431  0.55435879  0.14021839    -0.00860
Br974      Br  0.78903776  0.59701862  0.08968112    -0.00840
C975        C  0.68405460  0.68046676  0.84565221    -0.01960
C976        C  0.68461487  0.71873832  0.81387682     0.07720
C977        C  0.67555090  0.76255745  0.83299631    -0.02080
C978        C  0.67864275  0.76930050  0.88540124    -0.02080
C979        C  0.68985321  0.73153369  0.91827391     0.07850
C980        C  0.68464200  0.68625484  0.89774389    -0.02280
Br981      Br  0.68547126  0.62936386  0.93694520    -0.00820
Br982      Br  0.68869464  0.61993645  0.81706360    -0.00900
Br983      Br  0.67192431  0.83057452  0.90946602    -0.00860
Br984      Br  0.66622306  0.81386644  0.78676953    -0.00840
C985        C  0.68272690  0.80310222  0.17889932    -0.01960
C986        C  0.68706465  0.75998172  0.20373721     0.07720
C987        C  0.69736370  0.72209134  0.17618987    -0.02080
C988        C  0.73382629  0.72976854  0.14022925    -0.02080
C989        C  0.72901633  0.77029383  0.10813399     0.07850
C990        C  0.69804516  0.80674034  0.12778878    -0.02280
Br991      Br  0.67686900  0.86029855  0.08962133    -0.00820
Br992      Br  0.66459650  0.85651380  0.21648138    -0.00900
Br993      Br  0.79776329  0.69609767  0.15837031    -0.00860
Br994      Br  0.68528381  0.66076252  0.20174494    -0.00840
C995        C  0.66909481  0.85804749  0.54999669    -0.01960
C996        C  0.64333798  0.84131390  0.50593350     0.07720
C997        C  0.63735764  0.87357297  0.46492867    -0.02080
C998        C  0.67051428  0.91236409  0.46513173    -0.02080
C999        C  0.69523003  0.92391256  0.51164976     0.07850
C1000       C  0.67221996  0.90480557  0.55424251    -0.02280
Br1001     Br  0.68017900  0.93109028  0.61991862    -0.00820
Br1002     Br  0.73922842  0.83415718  0.56579332    -0.00900
Br1003     Br  0.68553885  0.94398041  0.40285934    -0.00860
Br1004     Br  0.59132589  0.86357766  0.40809959    -0.00840
C1005       C  0.78115245  0.79416975  0.40524987    -0.01960
C1006       C  0.77133939  0.75228692  0.42993688     0.07720
C1007       C  0.77932200  0.71192315  0.40325216    -0.02080
C1008       C  0.77658689  0.71405285  0.35037038    -0.02080
C1009       C  0.76664902  0.75691199  0.32612925     0.07850
C1010       C  0.77501654  0.79724093  0.35300418    -0.02280
Br1011     Br  0.77300833  0.85666118  0.31974087    -0.00820
Br1012     Br  0.79018591  0.84798472  0.44399670    -0.00900
Br1013     Br  0.78417227  0.65877925  0.31234691    -0.00860
Br1014     Br  0.79386641  0.65505231  0.43867401    -0.00840
C1015       C  0.70873098  0.76066400  0.63696229    -0.01960
C1016       C  0.70841875  0.72340545  0.60364768     0.07720
C1017       C  0.73921943  0.68424968  0.61875747    -0.02080
C1018       C  0.76282360  0.68254074  0.66763896    -0.02080
C1019       C  0.76280626  0.72263576  0.69578376     0.07850
C1020       C  0.74907018  0.76349313  0.67221139    -0.02280
Br1021     Br  0.76841517  0.82180811  0.69953435    -0.00820
Br1022     Br  0.65100283  0.80092847  0.65006152    -0.00900
Br1023     Br  0.78626377  0.62568839  0.69913709    -0.00860
Br1024     Br  0.74127929  0.63126357  0.57803220    -0.00840
loop_ 
_geom_bond_atom_site_label_1 
_geom_bond_atom_site_label_2 
_geom_bond_distance 
_geom_bond_site_symmetry_2 
_ccdc_geom_bond_type 
C1            C2   1.398       .  A
C1            C6   1.404       .  A
C1          C494   1.477       .  S
C2            C3   1.412       .  A
C2            H7   1.081       .  S
C3            C4   1.411       .  A
C3          C504   1.487       .  S
C4            C5   1.404       .  A
C4            H8   1.072       .  S
C5            C6   1.389       .  A
C5          C484   1.494       .  S
C6            H9   1.082       .  S
C10          C11   1.420       .  D
C10         C139   1.603       .  S
C10         C497   1.464       .  S
C11         C157   1.598       .  S
C11         C474   1.461       .  S
C12          C13   1.423       .  D
C12         C148   1.595       .  S
C12         C507   1.456       .  S
C13         C184   1.619       .  S
C13         C464   1.468       .  S
C14          C15   1.461       .  A
C14          C19   1.381       .  A
C14         C477   1.527       .  S
C15          C16   1.466   1_554  A
C15          H20   1.078       .  S
C16          C17   1.407       .  A
C16         C467   1.509       .  S
C17          C18   1.374   1_556  A
C17          H21   1.081       .  S
C18          C19   1.374       .  A
C18         C454   1.525       .  S
C19          H22   1.064       .  S
C23          C24   1.388   1_655  A
C23          C28   1.457       .  A
C23         C437   1.524       .  S
C24         C537   1.377       .  A
C24         H541   1.073       .  S
C25         C536   1.377       .  A
C25         C538   1.375       .  A
C25         C424   1.519       .  S
C26          C27   1.392       .  A
C26         C537   1.375   1_655  A
C26         H542   1.071       .  S
C27          C28   1.440       .  A
C27         C444   1.500       .  S
C28          H31   1.074       .  S
H29         C536   1.073       .  S
H30         C538   1.071       .  S
C32          C33   1.412       .  D
C32         C141   1.588       .  S
C32         C434   1.485       .  S
C33         C417   1.469       .  S
C33         C671   1.563       .  S
C34          C35   1.424       .  D
C34         C150   1.616       .  S
C34         C447   1.508       .  S
C35         C404   1.465       .  S
C35         C698   1.592       .  S
C36          C37   1.407   1_554  A
C36          C41   1.409       .  A
C36         C414   1.511       .  S
C37          C38   1.404       .  A
C37          H42   1.074       .  S
C38          C39   1.399       .  A
C38         C407   1.483       .  S
C39          C40   1.389       .  A
C39          H43   1.075       .  S
C40          C41   1.403   1_556  A
C40         C394   1.507       .  S
C41          H44   1.063       .  S
O45         Ni53   1.872   1_545  S
O45          C55   1.277   1_545  A
O46         Ni53   1.898       .  S
O46          C56   1.273       .  A
O47         Ni53   1.880   1_545  S
O47          C57   1.284       .  A
O48         Ni53   1.905       .  S
O48          C58   1.281       .  A
O49         Ni54   1.872       .  S
O49          C58   1.272       .  A
O50         Ni54   1.863   1_545  S
O50          C57   1.268       .  A
O51         Ni54   1.910       .  S
O51          C56   1.288       .  A
O52         Ni54   1.928       .  S
O52          C55   1.282       .  A
Ni53        Ni54   2.388       .  S
C55         C384   1.481   1_565  S
C56         C487   1.488       .  S
C57         C374   1.443       .  S
C58         C427   1.466       .  S
C59          C60   1.406       .  A
C59          C64   1.422   1_455  A
C59         C364   1.495       .  S
C60         C573   1.398       .  A
C60         H577   1.073       .  S
C61         C572   1.398       .  A
C61         C574   1.390       .  A
C61         C387   1.484       .  S
C62          C63   1.402   1_455  A
C62         C573   1.390       .  A
C62         H578   1.083       .  S
C63          C64   1.397       .  A
C63         C357   1.482       .  S
C64          H67   1.082       .  S
H65         C572   1.073       .  S
H66         C574   1.083       .  S
C68          C69   1.418       .  D
C68         C123   1.600       .  S
C68         C367   1.469       .  S
C69         C344   1.510       .  S
C69         C680   1.617       .  S
C70          C71   1.416       .  D
C70         C130   1.605       .  S
C70         C354   1.470       .  S
C71         C334   1.464       .  S
C71         C687   1.593       .  S
C72          C73   1.409       .  A
C72          C77   1.441       .  A
C72         C337   1.523       .  S
C73          C74   1.359       .  A
C73          H78   1.056       .  S
C74          C75   1.375   1_556  A
C74         C324   1.466       .  S
C75          C76   1.375       .  A
C75          H79   1.082       .  S
C76          C77   1.412   1_554  A
C76         C347   1.476       .  S
C77          H80   1.067       .  S
C81          C82   1.413       .  D
C81         C177   1.574       .  S
C81         C314   1.455       .  S
C82         C132   1.617       .  S
C82         C304   1.509       .  S
C83          C84   1.408   1_556  A
C83          C88   1.420       .  A
C83         C317   1.491       .  S
C84          C85   1.420       .  A
C84          H89   1.075       .  S
C85          C86   1.383       .  A
C85         C297   1.491       .  S
C86          C87   1.384   1_554  A
C86          H90   1.073       .  S
C87          C88   1.403       .  A
C87         C287   1.456       .  S
C88          H91   1.082       .  S
C92          C93   1.401       .  A
C92          C97   1.403       .  A
C92         C274   1.449       .  S
C93          C94   1.402       .  A
C93          H98   1.074       .  S
C94          C95   1.390       .  A
C94         C307   1.469       .  S
C95          C96   1.362       .  A
C95          H99   1.080       .  S
C96          C97   1.368       .  A
C96         C377   1.427       .  S
C97         H100   1.085       .  S
C101        C102   1.438       .  D
C101        C166   1.625       .  S
C101        C294   1.435       .  S
C102        C121   1.630       .  S
C102        C277   1.491       .  S
O103       Ni111   1.876       .  S
O103        C113   1.280       .  A
O104       Ni111   1.918       .  S
O104        C114   1.282   1_454  A
O105       Ni111   1.869       .  S
O105        C115   1.262   1_554  A
O106       Ni111   1.850       .  S
O106        C116   1.264       .  A
O107       Ni112   1.869       .  S
O107        C116   1.279   1_556  A
O108       Ni112   1.873       .  S
O108        C115   1.272       .  A
O109       Ni112   1.916       .  S
O109        C114   1.277   1_455  A
O110       Ni112   1.895       .  S
O110        C113   1.279   1_556  A
Ni111      Ni112   2.393   1_554  S
C113        C284   1.475       .  S
C114        C397   1.490       .  S
C115        C327   1.433       .  S
C116        C457   1.421       .  S
C117        C118   1.469   1_565  D
C117        C254   1.606   1_556  S
C117        C264   1.624       .  S
C118        C234   1.617       .  S
C118        C244   1.613   1_556  S
C119        C120   1.456       .  A
C119        C124   1.452       .  A
C119        C247   1.622       .  S
C120        C121   1.455       .  A
C120        H125   1.055       .  S
C121        C122   1.441       .  A
C122        C123   1.444       .  A
C122        H126   1.073       .  S
C123        C124   1.443       .  A
C124        H127   1.075       .  S
C128        C129   1.443       .  A
C128        C133   1.460       .  A
C128        C237   1.625       .  S
C129        C130   1.444       .  A
C129        H134   1.065       .  S
C130        C131   1.426       .  A
C131        C132   1.437       .  A
C131        H135   1.065       .  S
C132        C133   1.459       .  A
C133        H136   1.063       .  S
C137        C138   1.444       .  A
C137        C142   1.437       .  A
C137        C257   1.590       .  S
C138        C139   1.450       .  A
C138        H143   1.068       .  S
C139        C140   1.427       .  A
C140        C141   1.427       .  A
C140        H144   1.069       .  S
C141        C142   1.443       .  A
C142        H145   1.059       .  S
C146        C147   1.457       .  A
C146        C151   1.467       .  A
C146        C267   1.644       .  S
C147        C148   1.460       .  A
C147        H152   1.066       .  S
C148        C149   1.418       .  A
C149        C150   1.414       .  A
C149        H153   1.072       .  S
C150        C151   1.465       .  A
C151        H154   1.058       .  S
C155        C156   1.460       .  A
C155        C160   1.428       .  A
C155        C224   1.605       .  S
C156        C157   1.460       .  A
C156        H161   1.060       .  S
C157        C158   1.419       .  A
C158        C159   1.408       .  A
C158        H162   1.075       .  S
C159        C160   1.433       .  A
C159        C545   1.563       .  S
C160        H163   1.067       .  S
C164        C165   1.472       .  A
C164        C169   1.461       .  A
C164        C214   1.650       .  S
C165        C166   1.462       .  A
C165        H170   1.072       .  S
C166        C167   1.438       .  A
C167        C168   1.427       .  A
C167        H171   1.068       .  S
C168        C169   1.447       .  A
C168        C581   1.617       .  S
C169        H172   1.057       .  S
C173        C174   1.455       .  A
C173        C178   1.435       .  A
C173        C207   1.621       .  S
C174        C175   1.465       .  A
C174        H179   1.046   1_455  S
C175        C176   1.412       .  A
C175        C583   1.593   1_455  S
C176        C177   1.413       .  A
C176        H180   1.072       .  S
C177        C178   1.434       .  A
C178        H181   1.062       .  S
C182        C183   1.460       .  A
C182        C187   1.454       .  A
C182        C197   1.619       .  S
C183        C184   1.455       .  A
C183        H188   1.056       .  S
C184        C185   1.420       .  A
C185        C186   1.431       .  A
C185        H189   1.067       .  S
C186        C187   1.442       .  A
C186        C547   1.592   1_455  S
C187        H190   1.068       .  S
C191        C192   1.475       .  D
C191        C204   1.609       .  S
C191        C217   1.635       .  S
C192        C194   1.614       .  S
C192        C227   1.602       .  S
C193        C194   1.427       .  A
C193        C198   1.437       .  A
C193       Br200   1.906   1_455  S
C194        C195   1.444       .  A
C195        C196   1.465       .  A
C195       Br202   1.916       .  S
C196        C197   1.441       .  A
C196       Br201   1.925       .  S
C197        C198   1.418       .  A
C198       Br199   1.903   1_455  S
C203        C204   1.413       .  A
C203        C208   1.434       .  A
C203       Br210   1.889       .  S
C204        C205   1.441       .  A
C205        C206   1.467       .  A
C205       Br212   1.917   1_455  S
C206        C207   1.443       .  A
C206       Br211   1.922   1_455  S
C207        C208   1.429       .  A
C208       Br209   1.918       .  S
C213        C214   1.441       .  A
C213        C218   1.450       .  A
C213       Br220   1.924   1_455  S
C214        C215   1.452       .  A
C215        C216   1.476       .  A
C215       Br222   1.925       .  S
C216        C217   1.445       .  A
C216       Br221   1.924       .  S
C217        C218   1.434       .  A
C218       Br219   1.921   1_455  S
C223        C224   1.417       .  A
C223        C228   1.431       .  A
C223       Br230   1.884       .  S
C224        C225   1.444       .  A
C225        C226   1.457       .  A
C225       Br232   1.917       .  S
C226        C227   1.433       .  A
C226       Br231   1.914       .  S
C227        C228   1.424       .  A
C228       Br229   1.905       .  S
C233        C234   1.436       .  A
C233        C238   1.458       .  A
C233       Br240   1.917       .  S
C234        C235   1.430       .  A
C235        C236   1.451       .  A
C235       Br242   1.920       .  S
C236        C237   1.437       .  A
C236       Br241   1.899       .  S
C237        C238   1.442       .  A
C238       Br239   1.914       .  S
C243        C244   1.426       .  A
C243        C248   1.449       .  A
C243       Br250   1.930   1_554  S
C244        C245   1.440       .  A
C245        C246   1.464       .  A
C245       Br252   1.929   1_545  S
C246        C247   1.444       .  A
C246       Br251   1.928       .  S
C247        C248   1.442       .  A
C248       Br249   1.909       .  S
C253        C254   1.423       .  A
C253        C258   1.418       .  A
C253       Br260   1.903   1_554  S
C254        C255   1.451       .  A
C255        C256   1.465       .  A
C255       Br262   1.916       .  S
C256        C257   1.431       .  A
C256       Br261   1.924       .  S
C257        C258   1.411       .  A
C258       Br259   1.885       .  S
C263        C264   1.440       .  A
C263        C268   1.468       .  A
C263       Br270   1.926       .  S
C264        C265   1.431       .  A
C265        C266   1.452       .  A
C265       Br272   1.921       .  S
C266        C267   1.433       .  A
C266       Br271   1.910       .  S
C267        C268   1.445       .  A
C268       Br269   1.910       .  S
C273        C274   1.414       .  A
C273        C278   1.395       .  A
C273       Br280   1.922       .  S
C274        C275   1.399       .  A
C275        C276   1.400       .  A
C275       Br282   1.930       .  S
C276        C277   1.404       .  A
C276       Br281   1.924       .  S
C277        C278   1.394       .  A
C278       Br279   1.928       .  S
C283        C284   1.399       .  A
C283        C288   1.400       .  A
C283       Br290   1.918       .  S
C284        C285   1.404   1_554  A
C285        C286   1.409       .  A
C285       Br292   1.911       .  S
C286        C287   1.415       .  A
C286       Br291   1.908       .  S
C287        C288   1.411   1_556  A
C288       Br289   1.932       .  S
C293        C294   1.390       .  A
C293        C298   1.385       .  A
C293       Br300   1.948       .  S
C294        C295   1.401       .  A
C295        C296   1.397       .  A
C295       Br302   1.951       .  S
C296        C297   1.414       .  A
C296       Br301   1.917       .  S
C297        C298   1.441       .  A
C298       Br299   1.953       .  S
C303        C304   1.427       .  A
C303        C308   1.409       .  A
C303       Br310   1.912       .  S
C304        C305   1.418       .  A
C305        C306   1.408       .  A
C305       Br312   1.921       .  S
C306        C307   1.397       .  A
C306       Br311   1.914       .  S
C307        C308   1.405       .  A
C308       Br309   1.927       .  S
C313        C314   1.388       .  A
C313        C318   1.354       .  A
C313       Br320   1.913       .  S
C314        C315   1.420       .  A
C315        C316   1.428       .  A
C315       Br322   1.930       .  S
C316        C317   1.425       .  A
C316       Br321   1.919       .  S
C317        C318   1.389       .  A
C318       Br319   1.885       .  S
C323        C324   1.394       .  A
C323        C328   1.387   1_556  A
C323       Br330   1.922   1_556  S
C324        C325   1.441       .  A
C325        C838   1.380       .  A
C325       Br844   1.918       .  S
C326        C327   1.397   1_655  A
C326        C837   1.380       .  A
C326       Br331   1.939   1_655  S
C327        C840   1.422   1_456  A
C328        C839   1.422   1_554  A
C328       Br329   1.945       .  S
Br332       C837   1.918       .  S
C333        C334   1.378       .  A
C333        C338   1.378       .  A
C333       Br340   1.931       .  S
C334        C335   1.412       .  A
C335        C336   1.413       .  A
C335       Br342   1.925       .  S
C336        C337   1.420       .  A
C336       Br341   1.916       .  S
C337        C338   1.434       .  A
C338       Br339   1.914       .  S
C343        C344   1.407       .  A
C343        C348   1.387       .  A
C343       Br350   1.910       .  S
C344        C345   1.427       .  A
C345        C346   1.414       .  A
C345       Br864   1.883       .  S
C346        C347   1.393       .  A
C346       Br351   1.896       .  S
C347        C348   1.375       .  A
C348       Br349   1.873       .  S
Br352       C857   1.883       .  S
C353        C354   1.400       .  A
C353        C870   1.389       .  A
C353       Br360   1.907       .  S
C354        C355   1.405       .  A
C355        C356   1.406       .  A
C355       Br362   1.905       .  S
C356        C869   1.408       .  A
C356       Br361   1.917       .  S
C357        C358   1.401       .  A
C357        C868   1.408       .  A
C358        C865   1.389       .  A
C358       Br359   1.903       .  S
C363        C368   1.407       .  A
C363        C876   1.433       .  A
C363       Br370   1.940       .  S
C364        C365   1.407       .  A
C364        C875   1.433       .  A
C365        C366   1.392   1_455  A
C365       Br372   1.923       .  S
C366        C879   1.401       .  A
C366       Br371   1.919       .  S
C367        C368   1.403       .  A
C367        C878   1.401       .  A
C368       Br369   1.934       .  S
C373        C374   1.384       .  A
C373        C378   1.387       .  A
C373       Br380   1.921       .  S
C374        C375   1.397       .  A
C375        C376   1.381       .  A
C375       Br382   1.905       .  S
C376        C377   1.397       .  A
C376       Br381   1.910       .  S
C377        C378   1.411       .  A
C378       Br379   1.893       .  S
C383        C384   1.403       .  A
C383        C388   1.381       .  A
C383       Br390   1.928   1_545  S
C384        C385   1.406       .  A
C385        C386   1.412       .  A
C385       Br392   1.919       .  S
C386        C387   1.422       .  A
C386       Br903   1.908       .  S
C387        C388   1.424       .  A
C388       Br389   1.939       .  S
Br391       C898   1.908       .  S
C393        C394   1.415   1_554  A
C393        C910   1.379       .  A
C393       Br912   1.921       .  S
C394        C395   1.429       .  A
C395        C396   1.429       .  A
C395       Br402   1.928       .  S
C396        C909   1.418       .  A
C396       Br401   1.921       .  S
C397        C398   1.393   1_556  A
C397        C908   1.418       .  A
C398        C905   1.379       .  A
C398       Br399   1.927       .  S
Br400       C905   1.921       .  S
C403        C404   1.398       .  A
C403        C408   1.384       .  A
C403       Br410   1.934       .  S
C404        C405   1.401       .  A
C405        C406   1.404       .  A
C405       Br412   1.925       .  S
C406        C407   1.409       .  A
C406       Br411   1.912       .  S
C407        C408   1.417       .  A
C408       Br409   1.916       .  S
C413        C414   1.440       .  A
C413        C418   1.415       .  A
C413       Br420   1.925       .  S
C414        C415   1.430       .  A
C415        C416   1.369       .  A
C415       Br422   1.926       .  S
C416        C417   1.374       .  A
C416       Br421   1.916       .  S
C417        C418   1.398       .  A
C418       Br931   1.927       .  S
Br419       C930   1.927       .  S
C423        C424   1.412       .  A
C423        C428   1.394       .  A
C423       Br942   1.916       .  S
C424        C425   1.451       .  A
C425        C426   1.395       .  A
C425       Br432   1.926       .  S
C426        C427   1.382       .  A
C426       Br431   1.942       .  S
C427        C428   1.407       .  A
C428       Br429   1.923       .  S
Br430       C935   1.916       .  S
C433        C434   1.420       .  A
C433        C438   1.417       .  A
C433       Br440   1.927       .  S
C434        C435   1.387       .  A
C435        C948   1.394       .  A
C435       Br954   1.951       .  S
C436        C437   1.443   1_455  A
C436        C947   1.394   1_455  A
C436       Br441   1.917       .  S
C437        C950   1.414       .  A
C438        C949   1.414       .  A
C438       Br439   1.922       .  S
Br442       C947   1.951   1_455  S
C443        C444   1.398       .  A
C443        C448   1.423       .  A
C443       Br450   1.919       .  S
C444        C957   1.419       .  A
C445        C446   1.412       .  A
C445        C956   1.419       .  A
C445       Br452   1.895       .  S
C446        C447   1.407       .  A
C446       Br451   1.930       .  S
C447        C960   1.424       .  A
C448        C959   1.424       .  A
C448       Br449   1.923       .  S
C453        C454   1.441       .  A
C453        C458   1.345       .  A
C453       Br460   1.937       .  S
C454        C455   1.408       .  A
C455        C456   1.401       .  A
C455       Br462   1.914       .  S
C456        C457   1.411       .  A
C456       Br461   1.923       .  S
C457        C458   1.377       .  A
C458       Br459   1.892   1_554  S
C463        C464   1.387       .  A
C463        C468   1.395       .  A
C463       Br470   1.943       .  S
C464        C465   1.406       .  A
C465        C466   1.408       .  A
C465       Br472   1.926       .  S
C466        C467   1.414       .  A
C466       Br471   1.921       .  S
C467        C468   1.447       .  A
C468       Br469   1.942       .  S
C473        C474   1.412       .  A
C473        C478   1.422       .  A
C473       Br480   1.927       .  S
C474        C475   1.366       .  A
C475        C476   1.361       .  A
C475       Br482   1.933       .  S
C476        C477   1.446       .  A
C476       Br481   1.925       .  S
C477        C478   1.430       .  A
C478       Br479   1.910       .  S
C483        C484   1.419       .  A
C483        C488   1.376       .  A
C483       Br490   1.927       .  S
C484        C485   1.428       .  A
C485        C486   1.416       .  A
C485       Br492   1.906       .  S
C486        C487   1.415       .  A
C486       Br491   1.925       .  S
C487        C488   1.394       .  A
C488       Br489   1.925       .  S
C493        C494   1.404       .  A
C493        C498   1.391       .  A
C493       Br500   1.909       .  S
C494        C495   1.404       .  A
C495        C496   1.403       .  A
C495       Br502   1.919       .  S
C496        C497   1.413       .  A
C496       Br501   1.933       .  S
C497        C498   1.405       .  A
C498       Br499   1.931       .  S
C503        C504   1.416       .  A
C503        C508   1.367       .  A
C503       Br510   1.907       .  S
C504        C505   1.421       .  A
C505        C506   1.411       .  A
C505       Br512   1.907       .  S
C506        C507   1.402       .  A
C506       Br511   1.924       .  S
C507        C508   1.373       .  A
C508       Br509   1.928       .  S
C513        C514   1.398       .  A
C513        C518   1.404       .  A
C513       C1006   1.477       .  S
C514        C515   1.412       .  A
C514        H519   1.081       .  S
C515        C516   1.411       .  A
C515       C1016   1.487       .  S
C516        C517   1.404       .  A
C516        H520   1.072       .  S
C517        C518   1.389       .  A
C517        C996   1.494       .  S
C518        H521   1.082       .  S
C522        C523   1.420       .  D
C522        C651   1.603       .  S
C522       C1009   1.464       .  S
C523        C669   1.598       .  S
C523        C986   1.461       .  S
C524        C525   1.423       .  D
C524        C660   1.595       .  S
C524       C1019   1.456       .  S
C525        C696   1.619       .  S
C525        C976   1.468       .  S
C526        C527   1.461       .  A
C526        C531   1.381       .  A
C526        C989   1.527       .  S
C527        C528   1.466   1_554  A
C527        H532   1.078       .  S
C528        C529   1.407       .  A
C528        C979   1.509       .  S
C529        C530   1.374   1_556  A
C529        H533   1.081       .  S
C530        C531   1.374       .  A
C530        C966   1.525       .  S
C531        H534   1.064       .  S
C535        C536   1.388       .  A
C535        C540   1.457       .  A
C535        C949   1.524       .  S
C537        C936   1.519   1_455  S
C538        C539   1.392       .  A
C539        C540   1.440       .  A
C539        C956   1.500       .  S
C540        H543   1.074       .  S
C544        C545   1.412   1_655  D
C544        C653   1.588       .  S
C544        C946   1.485       .  S
C545        C929   1.469       .  S
C546        C547   1.424       .  D
C546        C662   1.616       .  S
C546        C959   1.508       .  S
C547        C916   1.465   1_655  S
C548        C549   1.407   1_554  A
C548        C553   1.409       .  A
C548        C926   1.511       .  S
C549        C550   1.404       .  A
C549        H554   1.074   1_655  S
C550        C551   1.399       .  A
C550        C919   1.483       .  S
C551        C552   1.389       .  A
C551        H555   1.075       .  S
C552        C553   1.403   1_556  A
C552        C906   1.507       .  S
C553        H556   1.063       .  S
O557       Ni565   1.872   1_545  S
O557        C567   1.277   1_545  A
O558       Ni565   1.898       .  S
O558        C568   1.273       .  A
O559       Ni565   1.880   1_545  S
O559        C569   1.284       .  A
O560       Ni565   1.905       .  S
O560        C570   1.281       .  A
O561       Ni566   1.872       .  S
O561        C570   1.272       .  A
O562       Ni566   1.863   1_545  S
O562        C569   1.268       .  A
O563       Ni566   1.910       .  S
O563        C568   1.288       .  A
O564       Ni566   1.928       .  S
O564        C567   1.282       .  A
Ni565      Ni566   2.388       .  S
C567        C896   1.481   1_565  S
C568        C999   1.488       .  S
C569        C886   1.443       .  S
C570        C939   1.466       .  S
C571        C572   1.406       .  A
C571        C576   1.422       .  A
C571        C876   1.495       .  S
C573        C899   1.484       .  S
C574        C575   1.402       .  A
C575        C576   1.397       .  A
C575        C869   1.482       .  S
C576        H579   1.082       .  S
C580        C581   1.418   1_655  D
C580        C635   1.600       .  S
C580        C879   1.469       .  S
C581        C856   1.510   1_455  S
C582        C583   1.416       .  D
C582        C642   1.605       .  S
C582        C866   1.470       .  S
C583        C846   1.464       .  S
C584        C585   1.409       .  A
C584        C589   1.441       .  A
C584        C849   1.523       .  S
C585        C586   1.359       .  A
C585        H590   1.056       .  S
C586        C587   1.375   1_556  A
C586        C836   1.466       .  S
C587        C588   1.375       .  A
C587        H591   1.082       .  S
C588        C589   1.412   1_554  A
C588        C859   1.476       .  S
C589        H592   1.067       .  S
C593        C594   1.413       .  D
C593        C689   1.574       .  S
C593        C826   1.455       .  S
C594        C644   1.617       .  S
C594        C816   1.509       .  S
C595        C596   1.408   1_556  A
C595        C600   1.420       .  A
C595        C829   1.491       .  S
C596        C597   1.420       .  A
C596        H601   1.075       .  S
C597        C598   1.383       .  A
C597        C809   1.491       .  S
C598        C599   1.384   1_554  A
C598        H602   1.073       .  S
C599        C600   1.403       .  A
C599        C799   1.456       .  S
C600        H603   1.082       .  S
C604        C605   1.401       .  A
C604        C609   1.403       .  A
C604        C786   1.449       .  S
C605        C606   1.402       .  A
C605        H610   1.074       .  S
C606        C607   1.390       .  A
C606        C819   1.469       .  S
C607        C608   1.362       .  A
C607        H611   1.080       .  S
C608        C609   1.368       .  A
C608        C889   1.427       .  S
C609        H612   1.085       .  S
C613        C614   1.438       .  D
C613        C678   1.625       .  S
C613        C806   1.435       .  S
C614        C633   1.630       .  S
C614        C789   1.491       .  S
O615       Ni623   1.876       .  S
O615        C625   1.280       .  A
O616       Ni623   1.918       .  S
O616        C626   1.282   1_554  A
O617       Ni623   1.869       .  S
O617        C627   1.262   1_554  A
O618       Ni623   1.850       .  S
O618        C628   1.264       .  A
O619       Ni624   1.869       .  S
O619        C628   1.279   1_556  A
O620       Ni624   1.873       .  S
O620        C627   1.272       .  A
O621       Ni624   1.916       .  S
O621        C626   1.277       .  A
O622       Ni624   1.895       .  S
O622        C625   1.279   1_556  A
Ni623      Ni624   2.393   1_554  S
C625        C796   1.475       .  S
C626        C909   1.490       .  S
C627        C839   1.433       .  S
C628        C969   1.421       .  S
C629        C630   1.469   1_565  D
C629        C766   1.606   1_556  S
C629        C776   1.624       .  S
C630        C746   1.617       .  S
C630        C756   1.613   1_556  S
C631        C632   1.456       .  A
C631        C636   1.452       .  A
C631        C759   1.622       .  S
C632        C633   1.455       .  A
C632        H637   1.055       .  S
C633        C634   1.441       .  A
C634        C635   1.444       .  A
C634        H638   1.073       .  S
C635        C636   1.443       .  A
C636        H639   1.075       .  S
C640        C641   1.443       .  A
C640        C645   1.460       .  A
C640        C749   1.625       .  S
C641        C642   1.444       .  A
C641        H646   1.065       .  S
C642        C643   1.426       .  A
C643        C644   1.437       .  A
C643        H647   1.065       .  S
C644        C645   1.459       .  A
C645        H648   1.063       .  S
C649        C650   1.444       .  A
C649        C654   1.437       .  A
C649        C769   1.590       .  S
C650        C651   1.450       .  A
C650        H655   1.068       .  S
C651        C652   1.427       .  A
C652        C653   1.427       .  A
C652        H656   1.069       .  S
C653        C654   1.443       .  A
C654        H657   1.059       .  S
C658        C659   1.457       .  A
C658        C663   1.467       .  A
C658        C779   1.644       .  S
C659        C660   1.460       .  A
C659        H664   1.066       .  S
C660        C661   1.418       .  A
C661        C662   1.414       .  A
C661        H665   1.072       .  S
C662        C663   1.465       .  A
C663        H666   1.058       .  S
C667        C668   1.460       .  A
C667        C672   1.428       .  A
C667        C736   1.605       .  S
C668        C669   1.460       .  A
C668        H673   1.060       .  S
C669        C670   1.419       .  A
C670        C671   1.408       .  A
C670        H674   1.075       .  S
C671        C672   1.433       .  A
C672        H675   1.067       .  S
C676        C677   1.472       .  A
C676        C681   1.461       .  A
C676        C726   1.650       .  S
C677        C678   1.462       .  A
C677        H682   1.072       .  S
C678        C679   1.438       .  A
C679        C680   1.427       .  A
C679        H683   1.068       .  S
C680        C681   1.447       .  A
C681        H684   1.057       .  S
C685        C686   1.455       .  A
C685        C690   1.435       .  A
C685        C719   1.621       .  S
C686        C687   1.465       .  A
C686        H691   1.045       .  S
C687        C688   1.412       .  A
C688        C689   1.413       .  A
C688        H692   1.072       .  S
C689        C690   1.434       .  A
C690        H693   1.062       .  S
C694        C695   1.460       .  A
C694        C699   1.454       .  A
C694        C709   1.619       .  S
C695        C696   1.455       .  A
C695        H700   1.056       .  S
C696        C697   1.420       .  A
C697        C698   1.431       .  A
C697        H701   1.067       .  S
C698        C699   1.442       .  A
C699        H702   1.068       .  S
C703        C704   1.475       .  D
C703        C716   1.609       .  S
C703        C729   1.635       .  S
C704        C706   1.614       .  S
C704        C739   1.602       .  S
C705        C706   1.427       .  A
C705        C710   1.437       .  A
C705       Br712   1.906       .  S
C706        C707   1.444       .  A
C707        C708   1.465       .  A
C707       Br714   1.916       .  S
C708        C709   1.441       .  A
C708       Br713   1.925       .  S
C709        C710   1.418       .  A
C710       Br711   1.903       .  S
C715        C716   1.413       .  A
C715        C720   1.434       .  A
C715       Br722   1.889       .  S
C716        C717   1.441       .  A
C717        C718   1.467       .  A
C717       Br724   1.917       .  S
C718        C719   1.443       .  A
C718       Br723   1.922       .  S
C719        C720   1.429       .  A
C720       Br721   1.918       .  S
C725        C726   1.441       .  A
C725        C730   1.450       .  A
C725       Br732   1.924       .  S
C726        C727   1.452       .  A
C727        C728   1.476       .  A
C727       Br734   1.925       .  S
C728        C729   1.445       .  A
C728       Br733   1.924       .  S
C729        C730   1.434       .  A
C730       Br731   1.921       .  S
C735        C736   1.417       .  A
C735        C740   1.431       .  A
C735       Br742   1.884       .  S
C736        C737   1.444       .  A
C737        C738   1.457       .  A
C737       Br744   1.917       .  S
C738        C739   1.433       .  A
C738       Br743   1.914       .  S
C739        C740   1.424       .  A
C740       Br741   1.905       .  S
C745        C746   1.436       .  A
C745        C750   1.458       .  A
C745       Br752   1.917       .  S
C746        C747   1.430       .  A
C747        C748   1.451       .  A
C747       Br754   1.920       .  S
C748        C749   1.437       .  A
C748       Br753   1.899       .  S
C749        C750   1.442       .  A
C750       Br751   1.914       .  S
C755        C756   1.426       .  A
C755        C760   1.449       .  A
C755       Br762   1.930   1_554  S
C756        C757   1.440       .  A
C757        C758   1.464       .  A
C757       Br764   1.929   1_545  S
C758        C759   1.444       .  A
C758       Br763   1.928       .  S
C759        C760   1.442       .  A
C760       Br761   1.909       .  S
C765        C766   1.423       .  A
C765        C770   1.418       .  A
C765       Br772   1.903   1_554  S
C766        C767   1.451       .  A
C767        C768   1.465       .  A
C767       Br774   1.916       .  S
C768        C769   1.431       .  A
C768       Br773   1.924       .  S
C769        C770   1.411       .  A
C770       Br771   1.885       .  S
C775        C776   1.440       .  A
C775        C780   1.468       .  A
C775       Br782   1.926       .  S
C776        C777   1.431       .  A
C777        C778   1.452       .  A
C777       Br784   1.921       .  S
C778        C779   1.433       .  A
C778       Br783   1.910       .  S
C779        C780   1.445       .  A
C780       Br781   1.910       .  S
C785        C786   1.414       .  A
C785        C790   1.395       .  A
C785       Br792   1.922       .  S
C786        C787   1.399       .  A
C787        C788   1.400       .  A
C787       Br794   1.930       .  S
C788        C789   1.404       .  A
C788       Br793   1.924       .  S
C789        C790   1.394       .  A
C790       Br791   1.928       .  S
C795        C796   1.399       .  A
C795        C800   1.400       .  A
C795       Br802   1.918       .  S
C796        C797   1.404   1_554  A
C797        C798   1.409       .  A
C797       Br804   1.911       .  S
C798        C799   1.415       .  A
C798       Br803   1.908       .  S
C799        C800   1.411   1_556  A
C800       Br801   1.932       .  S
C805        C806   1.390       .  A
C805        C810   1.385       .  A
C805       Br812   1.948       .  S
C806        C807   1.401       .  A
C807        C808   1.397       .  A
C807       Br814   1.951       .  S
C808        C809   1.414       .  A
C808       Br813   1.917       .  S
C809        C810   1.441       .  A
C810       Br811   1.953       .  S
C815        C816   1.427       .  A
C815        C820   1.409       .  A
C815       Br822   1.912       .  S
C816        C817   1.418       .  A
C817        C818   1.408       .  A
C817       Br824   1.921       .  S
C818        C819   1.397       .  A
C818       Br823   1.914       .  S
C819        C820   1.405       .  A
C820       Br821   1.927       .  S
C825        C826   1.388       .  A
C825        C830   1.354       .  A
C825       Br832   1.913       .  S
C826        C827   1.420       .  A
C827        C828   1.428       .  A
C827       Br834   1.930       .  S
C828        C829   1.425       .  A
C828       Br833   1.919       .  S
C829        C830   1.389       .  A
C830       Br831   1.885       .  S
C835        C836   1.394       .  A
C835        C840   1.387   1_556  A
C835       Br842   1.922   1_556  S
C836        C837   1.441       .  A
C838        C839   1.397       .  A
C838       Br843   1.939       .  S
C840       Br841   1.945       .  S
C845        C846   1.378       .  A
C845        C850   1.378       .  A
C845       Br852   1.931       .  S
C846        C847   1.412       .  A
C847        C848   1.413       .  A
C847       Br854   1.925       .  S
C848        C849   1.420       .  A
C848       Br853   1.916       .  S
C849        C850   1.434       .  A
C850       Br851   1.914       .  S
C855        C856   1.407       .  A
C855        C860   1.387       .  A
C855       Br862   1.910       .  S
C856        C857   1.427   1_655  A
C857        C858   1.414   1_455  A
C858        C859   1.393       .  A
C858       Br863   1.896   1_655  S
C859        C860   1.375       .  A
C860       Br861   1.873       .  S
C865        C866   1.400       .  A
C865       Br872   1.907       .  S
C866        C867   1.405       .  A
C867        C868   1.406       .  A
C867       Br874   1.905       .  S
C868       Br873   1.917       .  S
C869        C870   1.401       .  A
C870       Br871   1.903       .  S
C875        C880   1.407       .  A
C875       Br882   1.940       .  S
C876        C877   1.407       .  A
C877        C878   1.392       .  A
C877       Br884   1.923       .  S
C878       Br883   1.919       .  S
C879        C880   1.403   1_655  A
C880       Br881   1.934       .  S
C885        C886   1.384       .  A
C885        C890   1.387       .  A
C885       Br892   1.921       .  S
C886        C887   1.397       .  A
C887        C888   1.381       .  A
C887       Br894   1.905       .  S
C888        C889   1.397       .  A
C888       Br893   1.910       .  S
C889        C890   1.411       .  A
C890       Br891   1.893       .  S
C895        C896   1.403   1_455  A
C895        C900   1.381       .  A
C895       Br902   1.928   1_445  S
C896        C897   1.406   1_655  A
C897        C898   1.412       .  A
C897       Br904   1.919       .  S
C898        C899   1.422       .  A
C899        C900   1.424       .  A
C900       Br901   1.939   1_455  S
C905        C906   1.415   1_554  A
C906        C907   1.429       .  A
C907        C908   1.429       .  A
C907       Br914   1.928       .  S
C908       Br913   1.921       .  S
C909        C910   1.393   1_556  A
C910       Br911   1.927       .  S
C915        C916   1.398       .  A
C915        C920   1.384       .  A
C915       Br922   1.934       .  S
C916        C917   1.401       .  A
C917        C918   1.404       .  A
C917       Br924   1.925       .  S
C918        C919   1.409   1_455  A
C918       Br923   1.912       .  S
C919        C920   1.417   1_655  A
C920       Br921   1.916   1_455  S
C925        C926   1.440       .  A
C925        C930   1.415   1_655  A
C925       Br932   1.925       .  S
C926        C927   1.430       .  A
C927        C928   1.369       .  A
C927       Br934   1.926       .  S
C928        C929   1.374   1_655  A
C928       Br933   1.916   1_655  S
C929        C930   1.398       .  A
C935        C936   1.412   1_455  A
C935        C940   1.394   1_455  A
C936        C937   1.451       .  A
C937        C938   1.395       .  A
C937       Br944   1.926       .  S
C938        C939   1.382       .  A
C938       Br943   1.942       .  S
C939        C940   1.407       .  A
C940       Br941   1.923       .  S
C945        C946   1.420       .  A
C945        C950   1.417       .  A
C945       Br952   1.927       .  S
C946        C947   1.387       .  A
C948        C949   1.443       .  A
C948       Br953   1.917       .  S
C950       Br951   1.922       .  S
C955        C956   1.398       .  A
C955        C960   1.423       .  A
C955       Br962   1.919       .  S
C957        C958   1.412       .  A
C957       Br964   1.895       .  S
C958        C959   1.407       .  A
C958       Br963   1.930       .  S
C960       Br961   1.923       .  S
C965        C966   1.441       .  A
C965        C970   1.345       .  A
C965       Br972   1.937       .  S
C966        C967   1.408       .  A
C967        C968   1.401       .  A
C967       Br974   1.914       .  S
C968        C969   1.411       .  A
C968       Br973   1.923       .  S
C969        C970   1.377       .  A
C970       Br971   1.892   1_554  S
C975        C976   1.387       .  A
C975        C980   1.395       .  A
C975       Br982   1.943       .  S
C976        C977   1.406       .  A
C977        C978   1.408       .  A
C977       Br984   1.926       .  S
C978        C979   1.414       .  A
C978       Br983   1.921       .  S
C979        C980   1.447       .  A
C980       Br981   1.942       .  S
C985        C986   1.412       .  A
C985        C990   1.422       .  A
C985       Br992   1.927       .  S
C986        C987   1.366       .  A
C987        C988   1.361       .  A
C987       Br994   1.933       .  S
C988        C989   1.446       .  A
C988       Br993   1.925       .  S
C989        C990   1.430       .  A
C990       Br991   1.910       .  S
C995        C996   1.419       .  A
C995       C1000   1.376       .  A
C995      Br1002   1.927       .  S
C996        C997   1.428       .  A
C997        C998   1.416       .  A
C997      Br1004   1.906       .  S
C998        C999   1.415       .  A
C998      Br1003   1.925       .  S
C999       C1000   1.394       .  A
C1000     Br1001   1.925       .  S
C1005      C1006   1.404       .  A
C1005      C1010   1.391       .  A
C1005     Br1012   1.909       .  S
C1006      C1007   1.404       .  A
C1007      C1008   1.403       .  A
C1007     Br1014   1.919       .  S
C1008      C1009   1.413       .  A
C1008     Br1013   1.933       .  S
C1009      C1010   1.405       .  A
C1010     Br1011   1.931       .  S
C1015      C1016   1.416       .  A
C1015      C1020   1.367       .  A
C1015     Br1022   1.907       .  S
C1016      C1017   1.421       .  A
C1017      C1018   1.411       .  A
C1017     Br1024   1.907       .  S
C1018      C1019   1.402       .  A
C1018     Br1023   1.924       .  S
C1019      C1020   1.373       .  A
C1020     Br1021   1.928       .  S
