geometry optimzed in LAMMPS
_audit_creation_date              2020-11-30 
_audit_creation_method            'lammps2cif' 
_symmetry_space_group_name_H-M    'P1' 
_symmetry_Int_Tables_number       1 
_symmetry_cell_setting            triclinic 
loop_ 
_symmetry_equiv_pos_as_xyz 
  x,y,z 
_cell_length_a                    53.96894453 
_cell_length_b                    53.76392642142772 
_cell_length_c                    73.50449779962342 
_cell_angle_alpha                 90.03468590917147 
_cell_angle_beta                  90.16222638383951 
_cell_angle_gamma                 89.9805700496109 
loop_ 
_atom_site_label 
_atom_site_type_symbol 
_atom_site_fract_x 
_atom_site_fract_y 
_atom_site_fract_z 
_atom_site_charge 
In1        In  0.37829699  0.76079871  0.92691050     1.36900
C2          C  0.38303086  0.78294626  0.89448862     0.77700
O3          O  0.41938373  0.75908570  0.93044671    -0.60700
O4          O  0.40069747  0.72629851  0.92248065    -0.51600
C5          C  0.37456623  0.77645673  0.96137821     0.70400
O6          O  0.37273555  0.79154678  0.94820753    -0.46500
C7          C  0.33606390  0.73615413  0.92573883     0.75100
O8          O  0.39131869  0.79252198  0.90898072    -0.58400
O9          O  0.35706028  0.72590007  0.92619254    -0.48500
O10         O  0.37062251  0.76345850  0.89687454    -0.54800
C11         C  0.42106248  0.73633964  0.92644689     0.85300
O12         O  0.37872126  0.75435497  0.95673094    -0.56700
O13         O  0.33654301  0.75972256  0.92554290    -0.60000
In14       In  0.64264095  0.68597451  0.91847438     1.36900
C15         C  0.64499877  0.71565301  0.88945294     0.77700
O16         O  0.68238717  0.67482072  0.91808471    -0.60700
O17         O  0.65524381  0.64686505  0.91342430    -0.51600
C18         C  0.65061383  0.69529872  0.95350031     0.70400
O19         O  0.65790980  0.70997771  0.94116233    -0.46500
C20         C  0.59410750  0.67981064  0.91977266     0.75100
O21         O  0.64539050  0.72378583  0.90554730    -0.58400
O22         O  0.60791682  0.66390757  0.91223375    -0.48500
O23         O  0.64461492  0.69231355  0.88819545    -0.54800
C24         C  0.67792563  0.65212043  0.91526591     0.85300
O25         O  0.63962656  0.67611267  0.94778181    -0.56700
O26         O  0.60510475  0.69847103  0.92621450    -0.60000
In27       In  0.38417521  0.74755554  0.12888866     1.36900
C28         C  0.39266248  0.77064126  0.16043613     0.77700
O29         O  0.34249445  0.74854213  0.12781261    -0.60700
O30         O  0.36084274  0.71393666  0.13174927    -0.51600
C31         C  0.38609438  0.76862951  0.09578984     0.70400
O32         O  0.37529011  0.77900152  0.10899657    -0.46500
C33         C  0.42341976  0.71814845  0.12906603     0.75100
O34         O  0.39931051  0.77927116  0.14524799    -0.58400
O35         O  0.40278193  0.71103768  0.12289616    -0.48500
O36         O  0.37976436  0.75114296  0.15944189    -0.54800
C37         C  0.34068274  0.72522466  0.12925263     0.85300
O38         O  0.39582239  0.74812870  0.09974849    -0.56700
O39         O  0.42377701  0.74008796  0.13507182    -0.60000
In40       In  0.64795441  0.68046863  0.12411705     1.36900
C41         C  0.65237982  0.70523268  0.15538538     0.77700
O42         O  0.61057464  0.69654809  0.12079794    -0.60700
O43         O  0.61285244  0.65772483  0.12535035    -0.51600
C44         C  0.65545755  0.69211193  0.08943612     0.70400
O45         O  0.66154998  0.70669388  0.10221964    -0.46500
C46         C  0.68241450  0.64594519  0.12709649     0.75100
O47         O  0.65220862  0.71611010  0.14016560    -0.58400
O48         O  0.65968825  0.64138757  0.12947924    -0.48500
O49         O  0.65106267  0.68188964  0.15450198    -0.54800
C50         C  0.59909374  0.67628630  0.12238119     0.85300
O51         O  0.64640312  0.67168830  0.09454788    -0.56700
O52         O  0.68749032  0.66836039  0.12350884    -0.60000
In53       In  0.76172139  0.97820800  0.62176777     1.36900
C54         C  0.73480263  0.98457239  0.65226176     0.77700
O55         O  0.74703822  0.93961894  0.62138777    -0.60700
O56         O  0.78569341  0.94435004  0.62623778    -0.51600
C57         C  0.75262514  0.98368587  0.58582562     0.70400
O58         O  0.73940849  0.99415029  0.59782523    -0.46500
C59         C  0.79769481  0.01147409  0.62482777     0.75100
O60         O  0.72486287  0.98083930  0.63689470    -0.58400
O61         O  0.80140218  0.98837103  0.62623590    -0.48500
O62         O  0.75805380  0.98620247  0.65174476    -0.54800
C63         C  0.76775151  0.92954432  0.62430981     0.85300
O64         O  0.76979403  0.97072557  0.59244572    -0.56700
O65         O  0.77532107  0.01745905  0.62212330    -0.60000
In66       In  0.67582262  0.71931133  0.62642217     1.36900
C67         C  0.65010847  0.73036271  0.65649557     0.77700
O68         O  0.67288679  0.67758035  0.62618780    -0.60700
O69         O  0.70655275  0.69453246  0.63477477    -0.51600
C70         C  0.66372500  0.71474505  0.59115894     0.70400
O71         O  0.64752484  0.71317902  0.60356518    -0.46500
C72         C  0.70448990  0.75932818  0.62519184     0.75100
O73         O  0.64342687  0.73748795  0.64087454    -0.58400
O74         O  0.71286954  0.73793186  0.62850875    -0.48500
O75         O  0.66856377  0.71610751  0.65648484    -0.54800
C76         C  0.69505932  0.67460473  0.63139455     0.85300
O77         O  0.68524524  0.71869401  0.59705637    -0.56700
O78         O  0.68138162  0.76004315  0.62269461    -0.60000
In79       In  0.74565510  0.98855891  0.41342100     1.36900
C80         C  0.71705636  0.98902681  0.38378995     0.77700
O81         O  0.75284982  0.02934845  0.41267008    -0.60700
O82         O  0.78218882  0.00444149  0.40583285    -0.51600
C83         C  0.73954256  0.99510725  0.44904505     0.70400
O84         O  0.72219425  0.99930086  0.43778053    -0.46500
C85         C  0.75445708  0.94034006  0.41410276     0.75100
O86         O  0.70809711  0.98739162  0.39961557    -0.58400
O87         O  0.77056366  0.95542998  0.40835376    -0.48500
O88         O  0.74015908  0.99192444  0.38332912    -0.54800
C89         C  0.77526042  0.02672884  0.40804318     0.85300
O90         O  0.75975839  0.98853634  0.44195199    -0.56700
O91         O  0.73438005  0.95001727  0.41907852    -0.60000
In92       In  0.67830105  0.72388971  0.42154973     1.36900
C93         C  0.65619297  0.72530673  0.38905513     0.77700
O94         O  0.67819091  0.76510854  0.41904701    -0.60700
O95         O  0.71267828  0.74657944  0.41698368    -0.51600
C96         C  0.66004244  0.72307865  0.45557220     0.70400
O97         O  0.64763474  0.71554993  0.44204173    -0.46500
C98         C  0.70397313  0.68213135  0.42219699     0.75100
O99         O  0.64678346  0.73507093  0.40305976    -0.58400
O100        O  0.71378738  0.70334590  0.42349812    -0.48500
O101        O  0.67561542  0.71301334  0.39202809    -0.54800
C102        C  0.70116302  0.76699383  0.41641337     0.85300
O103        O  0.68090614  0.73177873  0.45141373    -0.56700
O104        O  0.68061167  0.68232876  0.42076858    -0.60000
C105        C  0.38728860  0.78987593  0.70974396     0.86600
C106        C  0.39362096  0.81742861  0.70629163    -0.53600
C107        C  0.40243922  0.82250566  0.68930747     0.09500
C108        C  0.40244625  0.79970855  0.67666230     0.20500
C109        C  0.36767823  0.78437303  0.69483711    -0.54300
C110        C  0.37581680  0.78946605  0.67748109     0.09600
C111        C  0.40989169  0.77480809  0.70354949    -0.53900
C112        C  0.41830253  0.78035490  0.68657715     0.10200
H113        H  0.39097272  0.83166826  0.71655097     0.14700
H114        H  0.40906605  0.80417404  0.66277541     0.00500
H115        H  0.34905839  0.77777855  0.69742627     0.15000
H116        H  0.41992840  0.76238659  0.71261479     0.14800
C117        C  0.46393496  0.02833106  0.70222844     0.86600
C118        C  0.49148542  0.02700098  0.69761898    -0.53600
C119        C  0.49648560  0.01944292  0.68041566     0.09500
C120        C  0.47336289  0.01483200  0.66863890     0.20500
C121        C  0.45301067  0.04609213  0.68752575    -0.54300
C122        C  0.45810412  0.03886420  0.66996350     0.09600
C123        C  0.45297383  0.00307783  0.69665868    -0.53900
C124        C  0.45756831  0.99572691  0.67910611     0.10200
H125        H  0.50608339  0.03136286  0.70731825     0.14700
H126        H  0.47767150  0.00977306  0.65444282     0.00500
H127        H  0.44065721  0.06149691  0.69024995     0.15000
H128        H  0.44152386  0.99231012  0.70586498     0.14800
C129        C  0.62939575  0.74099663  0.70608471     0.86600
C130        C  0.60176825  0.74156794  0.70016313    -0.53600
C131        C  0.59750156  0.75235373  0.68355121     0.09500
C132        C  0.62111172  0.76180083  0.67432812     0.20500
C133        C  0.64245738  0.72803051  0.69008186    -0.54300
C134        C  0.63822577  0.73892551  0.67351640     0.09600
C135        C  0.63716418  0.76839768  0.70485545    -0.53900
C136        C  0.63264889  0.77948626  0.68853502     0.10200
H137        H  0.58637763  0.73508745  0.70821121     0.14700
H138        H  0.61806039  0.77030228  0.66079897     0.00500
H139        H  0.65429400  0.71185669  0.69178986     0.15000
H140        H  0.64524597  0.77845469  0.71623935     0.14800
C141        C  0.71502835  0.98926091  0.70262392     0.86600
C142        C  0.70679785  0.96174426  0.70181382    -0.53600
C143        C  0.69659576  0.95446881  0.68572275     0.09500
C144        C  0.69415740  0.97565073  0.67184906     0.20500
C145        C  0.73162689  0.99276772  0.68583921    -0.54300
C146        C  0.72081874  0.98568751  0.66968229     0.09600
C147        C  0.69085753  0.00307688  0.69804029    -0.53900
C148        C  0.67961067  0.99599980  0.68214219     0.10200
H149        H  0.70717655  0.94930246  0.71341478     0.14700
H150        H  0.68538088  0.96941189  0.65895641     0.00500
H151        H  0.75055872  0.99947593  0.68677700     0.15000
H152        H  0.68202128  0.01576485  0.70746776     0.14800
C153        C  0.39220189  0.79124960  0.84294042     0.86600
C154        C  0.42007973  0.78553610  0.84623595    -0.53600
C155        C  0.42974899  0.79552333  0.86190340     0.09500
C156        C  0.41065407  0.81048911  0.87284814     0.20500
C157        C  0.37942124  0.78239192  0.86045308    -0.54300
C158        C  0.38913153  0.79235182  0.87609861     0.09600
C159        C  0.39139195  0.81984104  0.84375013    -0.53900
C160        C  0.40090030  0.82992729  0.85927079     0.10200
H161        H  0.43169166  0.77528897  0.83684548     0.14700
H162        H  0.41801060  0.81832627  0.88568786     0.00500
H163        H  0.36484224  0.76847967  0.86047020     0.15000
H164        H  0.38406902  0.83120481  0.83284264     0.14800
C165        C  0.45028662  0.03920446  0.83893134     0.86600
C166        C  0.43715370  0.01487443  0.84463565    -0.53600
C167        C  0.44120283  0.00770878  0.86218494     0.09500
C168        C  0.45925262  0.02474403  0.87243656     0.20500
C169        C  0.44269128  0.05837650  0.85360611    -0.54300
C170        C  0.44720755  0.05057891  0.87110804     0.09600
C171        C  0.47765506  0.03338569  0.84295499    -0.53900
C172        C  0.48253811  0.02642677  0.86039584     0.10200
H173        H  0.42669377  0.00298760  0.83554952     0.14700
H174        H  0.46332804  0.01870177  0.88658193     0.00500
H175        H  0.43479464  0.07643733  0.85042631     0.15000
H176        H  0.49217153  0.03449824  0.83278819     0.14800
C177        C  0.69925918  0.98745363  0.83587185     0.86600
C178        C  0.67271530  0.99605910  0.84015167    -0.53600
C179        C  0.66341824  0.98810049  0.85644631     0.09500
C180        C  0.68258283  0.97335011  0.86773143     0.20500
C181        C  0.71419878  0.99803811  0.85222617    -0.54300
C182        C  0.70532608  0.99061792  0.86894705     0.09600
C183        C  0.69966549  0.95922752  0.83904165    -0.53900
C184        C  0.69061713  0.95184306  0.85541420     0.10200
H185        H  0.66181200  0.00692220  0.83058182     0.14700
H186        H  0.67567790  0.96657664  0.88096347     0.00500
H187        H  0.72929339  0.01119806  0.85106201     0.15000
H188        H  0.70639237  0.94611927  0.82895232     0.14800
C189        C  0.64276518  0.74510494  0.84148514     0.86600
C190        C  0.65874358  0.76698667  0.84798166    -0.53600
C191        C  0.65417859  0.77468446  0.86534504     0.09500
C192        C  0.63432106  0.75921690  0.87506407     0.20500
C193        C  0.64789677  0.72461281  0.85589273    -0.54300
C194        C  0.64352620  0.73221079  0.87347487     0.09600
C195        C  0.61588360  0.75244140  0.84540776    -0.53900
C196        C  0.61129781  0.76028012  0.86268831     0.10200
H197        H  0.67217279  0.77611768  0.83932499     0.14700
H198        H  0.63095936  0.76556088  0.88917951     0.00500
H199        H  0.65385585  0.70582794  0.85289191     0.15000
H200        H  0.60136825  0.75130961  0.83515420     0.14800
In201      In  0.44725296  0.09148125  0.91835440     1.36900
C202        C  0.44348707  0.06582703  0.88757446     0.77700
O203        O  0.40978103  0.10877988  0.91693400    -0.60700
O204        O  0.44116623  0.13245199  0.91478001    -0.51600
C205        C  0.43901975  0.08026243  0.95333643     0.70400
O206        O  0.42739766  0.06964249  0.94050935    -0.46500
C207        C  0.49614043  0.08738200  0.91750164     0.75100
O208        O  0.43995065  0.05620023  0.90302898    -0.58400
O209        O  0.48542474  0.10819081  0.91558268    -0.48500
O210        O  0.44601040  0.08912104  0.88768936    -0.54800
C211        C  0.41782401  0.13073706  0.91527339     0.85300
O212        O  0.45403304  0.09666380  0.94805526    -0.56700
O213        O  0.48165156  0.06952542  0.92043903    -0.60000
In214      In  0.72129345  0.02643585  0.91766219     1.36900
C215        C  0.71342840  0.00172115  0.88646206     0.77700
O216        O  0.68163677  0.02921830  0.92609362    -0.60700
O217        O  0.69633468  0.05864813  0.91035079    -0.51600
C218        C  0.72800311  0.01090331  0.95193608     0.70400
O219        O  0.72828858  0.99582259  0.93866737    -0.46500
C220        C  0.76412238  0.05038998  0.91509974     0.75100
O221        O  0.70756690  0.99291179  0.90179136    -0.58400
O222        O  0.74352684  0.06115000  0.91725565    -0.48500
O223        O  0.72507998  0.02193873  0.88728222    -0.54800
C224        C  0.67770146  0.04967762  0.91828267     0.85300
O225        O  0.72410367  0.03316585  0.94746682    -0.56700
O226        O  0.76276278  0.02695014  0.91401842    -0.60000
In227      In  0.43600017  0.08040323  0.12311872     1.36900
C228        C  0.43408040  0.05736208  0.15518964     0.77700
O229        O  0.47242469  0.06255462  0.12000502    -0.60700
O230        O  0.47206111  0.10097247  0.12683676    -0.51600
C231        C  0.42700145  0.06914364  0.08841244     0.70400
O232        O  0.42049384  0.05475412  0.10118383    -0.46500
C233        C  0.40267224  0.11614502  0.12487181     0.75100
O234        O  0.43236930  0.04569254  0.14028326    -0.58400
O235        O  0.42567910  0.12044276  0.12411658    -0.48500
O236        O  0.43464187  0.08069279  0.15360963    -0.54800
C237        C  0.48476989  0.08152812  0.12428727     0.85300
O238        O  0.43825371  0.08847331  0.09348555    -0.56700
O239        O  0.39677211  0.09339645  0.12570028    -0.60000
In240      In  0.70718709  0.02134653  0.12094837     1.36900
C241        C  0.69822423  0.99466322  0.15102573     0.77700
O242        O  0.74861315  0.02603731  0.12295102    -0.60700
O243        O  0.72589573  0.05817186  0.12250474    -0.51600
C244        C  0.71327961  0.00535818  0.08671623     0.70400
O245        O  0.72077777  0.99268055  0.10017568    -0.46500
C246        C  0.66379668  0.04438790  0.12117602     0.75100
O247        O  0.69095880  0.98794587  0.13546958    -0.58400
O248        O  0.68249334  0.05298571  0.12937703    -0.48500
O249        O  0.71216602  0.01338647  0.15089890    -0.54800
C250        C  0.74758921  0.04953885  0.12321124     0.85300
O251        O  0.70322564  0.02565157  0.09096390    -0.56700
O252        O  0.66753474  0.02423270  0.11289053    -0.60000
C253        C  0.69303807  0.98744365  0.33449983     0.86600
C254        C  0.66718477  0.99728895  0.34023413    -0.53600
C255        C  0.65912427  0.98898042  0.35684067     0.09500
C256        C  0.67777782  0.97164961  0.36631190     0.20500
C257        C  0.71014514  0.99457374  0.35041095    -0.54300
C258        C  0.70217144  0.98637927  0.36701526     0.09600
C259        C  0.68980392  0.95916526  0.33583952    -0.53900
C260        C  0.68230053  0.95070273  0.35235638     0.10200
H261        H  0.65524686  0.00856812  0.33175036     0.14700
H262        H  0.67180474  0.96529586  0.37988765     0.00500
H263        H  0.72736323  0.00471087  0.34860405     0.15000
H264        H  0.69260594  0.94671655  0.32437609     0.14800
C265        C  0.64425785  0.72716495  0.33738570     0.86600
C266        C  0.64987647  0.75532283  0.33758751    -0.53600
C267        C  0.64206779  0.76774495  0.35278370     0.09500
C268        C  0.62832907  0.75085163  0.36625133     0.20500
C269        C  0.65478359  0.71719340  0.35543958    -0.54300
C270        C  0.64641029  0.72955347  0.37051102     0.09600
C271        C  0.61583390  0.72626536  0.34008188    -0.53900
C272        C  0.60751122  0.73914751  0.35484267     0.10200
H273        H  0.65935436  0.76467939  0.32651844     0.14700
H274        H  0.62205569  0.76040531  0.37871550     0.00500
H275        H  0.66822256  0.70218366  0.35615290     0.15000
H276        H  0.60289068  0.71711770  0.33114468     0.14800
C277        C  0.39337914  0.78878762  0.34552070     0.86600
C278        C  0.41951771  0.77844821  0.34880131    -0.53600
C279        C  0.42878992  0.78265804  0.36576642     0.09500
C280        C  0.41128107  0.79768856  0.37816660     0.20500
C281        C  0.37737569  0.77850789  0.36110159    -0.54300
C282        C  0.38659826  0.78320169  0.37818033     0.09600
C283        C  0.39648576  0.81667183  0.35020417    -0.53900
C284        C  0.40512647  0.82139603  0.36733748     0.10200
H285        H  0.43028444  0.76916050  0.33834356     0.14700
H286        H  0.41889645  0.80146639  0.39194810     0.00500
H287        H  0.35944057  0.76988868  0.35880219     0.15000
H288        H  0.39319089  0.83185631  0.34083965     0.14800
C289        C  0.44582378  0.03608249  0.33985619     0.86600
C290        C  0.43809272  0.00923807  0.34429322    -0.53600
C291        C  0.44482409  0.00096247  0.36116028     0.09500
C292        C  0.45814064  0.02090660  0.37260289     0.20500
C293        C  0.43368909  0.05124757  0.35541444    -0.54300
C294        C  0.44019098  0.04325563  0.37257842     0.09600
C295        C  0.47353026  0.03776365  0.34418985    -0.53900
C296        C  0.48012220  0.02922381  0.36093566     0.10200
H297        H  0.42779060  0.99766502  0.33480925     0.14700
H298        H  0.46395120  0.01429594  0.38619403     0.00500
H299        H  0.42029765  0.06598843  0.35346046     0.15000
H300        H  0.48717727  0.04424163  0.33445378     0.14800
C301        C  0.68686491  0.97400380  0.20079101     0.86600
C302        C  0.69056095  0.94672478  0.19515417    -0.53600
C303        C  0.68108813  0.94087539  0.17845986     0.09500
C304        C  0.66919260  0.96288451  0.16849309     0.20500
C305        C  0.69904714  0.98866774  0.18497057    -0.54300
C306        C  0.68991922  0.98256980  0.16805761     0.09600
C307        C  0.65911722  0.97929335  0.19831801    -0.53900
C308        C  0.64956469  0.97324669  0.18170424     0.10200
H309        H  0.69916422  0.93294490  0.20394876     0.14700
H310        H  0.66177382  0.95759574  0.15496609     0.00500
H311        H  0.71347768  0.00246561  0.18653494     0.15000
H312        H  0.64771214  0.98680764  0.20918153     0.14800
C313        C  0.65938450  0.72465600  0.20558150     0.86600
C314        C  0.63180512  0.73214847  0.20564920    -0.53600
C315        C  0.62352306  0.74309352  0.19009872     0.09500
C316        C  0.64345414  0.74529687  0.17538086     0.20500
C317        C  0.66154560  0.70764799  0.18870424    -0.54300
C318        C  0.65330714  0.71857752  0.17292409     0.09600
C319        C  0.67371082  0.74811824  0.19964147    -0.53900
C320        C  0.66449624  0.75985482  0.18464595     0.10200
H321        H  0.61963137  0.72848978  0.21709585     0.14700
H322        H  0.63647681  0.75398799  0.16265123     0.00500
H323        H  0.66913004  0.68914219  0.18844206     0.15000
H324        H  0.68938358  0.75522456  0.20725719     0.14800
C325        C  0.40746286  0.78673177  0.21064870     0.86600
C326        C  0.40716336  0.81468150  0.20679392    -0.53600
C327        C  0.41574273  0.82103273  0.19007446     0.09500
C328        C  0.42377064  0.79895397  0.17829688     0.20500
C329        C  0.39304807  0.77454360  0.19469691    -0.54300
C330        C  0.40129718  0.78152538  0.17781312     0.09600
C331        C  0.43438403  0.77869519  0.20661350    -0.53900
C332        C  0.44325613  0.78475611  0.18969167     0.10200
H333        H  0.40115036  0.82844521  0.21667555     0.14700
H334        H  0.42955956  0.80446020  0.16454196     0.00500
H335        H  0.37913691  0.76026188  0.19634373     0.15000
H336        H  0.44537124  0.76820345  0.21625618     0.14800
C337        C  0.43743648  0.04100537  0.20608785     0.86600
C338        C  0.46461647  0.03224814  0.20370078    -0.53600
C339        C  0.46956490  0.02046070  0.18762920     0.09500
C340        C  0.44655263  0.01816409  0.17527967     0.20500
C341        C  0.43206283  0.05684039  0.18919787    -0.54300
C342        C  0.43657591  0.04491630  0.17306917     0.09600
C343        C  0.42269686  0.01688157  0.20318766    -0.53900
C344        C  0.42726729  0.00470297  0.18720565     0.10200
H345        H  0.47883203  0.03432783  0.21405406     0.14700
H346        H  0.45072355  0.00916769  0.16210726     0.00500
H347        H  0.42546847  0.07589592  0.18995971     0.15000
H348        H  0.41084598  0.00909787  0.21358762     0.14800
In349      In  0.41569996  0.05491982  0.62473950     1.36900
C350        C  0.44463414  0.04811267  0.65379507     0.77700
O351        O  0.41434202  0.09653121  0.62356659    -0.60700
O352        O  0.38196526  0.07677568  0.63124230    -0.51600
C353        C  0.42632267  0.05731627  0.58925360     0.70400
O354        O  0.44086119  0.06589116  0.60124125    -0.46500
C355        C  0.39254259  0.01147712  0.62641374     0.75100
O356        O  0.45162384  0.04339708  0.63779534    -0.58400
O357        O  0.38152233  0.03191974  0.62892562    -0.48500
O358        O  0.42390267  0.05871789  0.65478430    -0.54800
C359        C  0.39173815  0.09758086  0.62786948     0.85300
O360        O  0.40689596  0.04766801  0.59548894    -0.56700
O361        O  0.41542102  0.01357775  0.62339727    -0.60000
In362      In  0.33122197  0.79073270  0.63161030     1.36900
C363        C  0.35996928  0.78784354  0.66110212     0.77700
O364        O  0.34695156  0.82739549  0.62415964    -0.60700
O365        O  0.31226951  0.82694546  0.63791031    -0.51600
C366        C  0.33744991  0.78105862  0.59621109     0.70400
O367        O  0.35315993  0.77431508  0.60808528    -0.46500
C368        C  0.29459479  0.75922861  0.63719164     0.75100
O369        O  0.36856361  0.78623510  0.64516117    -0.58400
O370        O  0.29139764  0.78240780  0.63582678    -0.48500
O371        O  0.33673439  0.78930040  0.66189288    -0.54800
C372        C  0.32938260  0.83967706  0.63089270     0.85300
O373        O  0.31883717  0.79201179  0.60269258    -0.56700
O374        O  0.31692335  0.75217993  0.63618274    -0.60000
In375      In  0.39910817  0.06094846  0.41828024     1.36900
C376        C  0.42754325  0.05203172  0.38923379     0.77700
O377        O  0.39393921  0.02187858  0.42729029    -0.60700
O378        O  0.36726207  0.03651090  0.40904357    -0.51600
C379        C  0.41071834  0.06769398  0.45343998     0.70400
O380        O  0.42712164  0.06716119  0.44112352    -0.46500
C381        C  0.37657495  0.10407274  0.41373876     0.75100
O382        O  0.43379378  0.04546036  0.40507203    -0.58400
O383        O  0.36540516  0.08346871  0.41333546    -0.48500
O384        O  0.40826303  0.06510774  0.38862043    -0.54800
C385        C  0.37455404  0.01806467  0.41815989     0.85300
O386        O  0.38897247  0.06505838  0.44750076    -0.56700
O387        O  0.39973377  0.10253834  0.41622578    -0.60000
In388      In  0.34261745  0.78690749  0.42404424     1.36900
C389        C  0.37112825  0.78113708  0.39470878     0.77700
O390        O  0.32643708  0.74879239  0.42488579    -0.60700
O391        O  0.30280795  0.77895438  0.41766910    -0.51600
C392        C  0.35026708  0.78184016  0.45970198     0.70400
O393        O  0.36172221  0.76866561  0.44817614    -0.46500
C394        C  0.34318704  0.83599105  0.42175149     0.75100
O395        O  0.37993464  0.78092863  0.41065279    -0.58400
O396        O  0.32345745  0.82368506  0.41926961    -0.48500
O397        O  0.34781952  0.78181160  0.39397608    -0.54800
C398        C  0.30487579  0.75589682  0.42062382     0.85300
O399        O  0.33503981  0.79702249  0.45293928    -0.56700
O400        O  0.36178750  0.82291595  0.42568459    -0.60000
In401      In  0.91887866  0.22078158  0.91790342     1.36900
C402        C  0.94041342  0.23192631  0.88593984     0.77700
O403        O  0.92035216  0.17870420  0.91653701    -0.60700
O404        O  0.88558397  0.19705408  0.91387020    -0.51600
C405        C  0.93771378  0.21756301  0.95175039     0.70400
O406        O  0.95004292  0.21104081  0.93791667    -0.46500
C407        C  0.89124752  0.26158641  0.91970780     0.75100
O408        O  0.94962852  0.23830551  0.90103409    -0.58400
O409        O  0.88222383  0.24051613  0.91607876    -0.48500
O410        O  0.92169962  0.21821282  0.88731416    -0.54800
C411        C  0.89729112  0.17675915  0.91383429     0.85300
O412        O  0.91605428  0.22480412  0.94816218    -0.56700
O413        O  0.91427858  0.26160496  0.92259969    -0.60000
In414      In  0.84238453  0.48353796  0.91444671     1.36900
C415        C  0.86832431  0.48892093  0.88395098     0.77700
O416        O  0.85848424  0.44573911  0.91486160    -0.60700
O417        O  0.81952522  0.44873457  0.91071062    -0.51600
C418        C  0.85328648  0.48858824  0.94980105     0.70400
O419        O  0.86767101  0.49618365  0.93743930    -0.46500
C420        C  0.80831710  0.51863232  0.91246606     0.75100
O421        O  0.87819938  0.48972801  0.89955042    -0.58400
O422        O  0.80316713  0.49576576  0.91143227    -0.48500
O423        O  0.84510130  0.48640235  0.88400819    -0.54800
C424        C  0.83826350  0.43475999  0.91188405     0.85300
O425        O  0.83356925  0.47894333  0.94391256    -0.56700
O426        O  0.83115673  0.52358819  0.91343175    -0.60000
In427      In  0.91708368  0.21056528  0.11836876     1.36900
C428        C  0.94112834  0.21985868  0.14929972     0.77700
O429        O  0.91559364  0.25136209  0.11403766    -0.60700
O430        O  0.88347749  0.23383236  0.12443944    -0.51600
C431        C  0.93584897  0.20463461  0.08509769     0.70400
O432        O  0.94871875  0.20039249  0.09915640    -0.46500
C433        C  0.88927446  0.17008320  0.12032460     0.75100
O434        O  0.94803348  0.22852750  0.13424069    -0.58400
O435        O  0.88084341  0.19134662  0.11654321    -0.48500
O436        O  0.92377298  0.20425844  0.14823075    -0.54800
C437        C  0.89390489  0.25388310  0.11997123     0.85300
O438        O  0.91413482  0.21185506  0.08824683    -0.56700
O439        O  0.91241724  0.16927624  0.12320708    -0.60000
In440      In  0.84646713  0.47688507  0.12171228     1.36900
C441        C  0.86874296  0.48042143  0.15421834     0.77700
O442        O  0.83485089  0.51682622  0.12248907    -0.60700
O443        O  0.80690248  0.48881563  0.12209118    -0.51600
C444        C  0.85837083  0.48320010  0.08666880     0.70400
O445        O  0.87194893  0.49160522  0.09938438    -0.46500
C446        C  0.84088916  0.42822335  0.12248434     0.75100
O447        O  0.88103397  0.47970968  0.13957613    -0.58400
O448        O  0.82344214  0.44271842  0.12675943    -0.48500
O449        O  0.84562098  0.48063619  0.15198133    -0.54800
C450        C  0.81197502  0.51175057  0.12217166     0.85300
O451        O  0.83949451  0.47164130  0.09209910    -0.56700
O452        O  0.86092301  0.43861945  0.11808734    -0.60000
In453      In  0.12917231  0.59256324  0.63268997     1.36900
C454        C  0.13054172  0.56540359  0.66294785     0.77700
O455        O  0.16851145  0.60507698  0.63374651    -0.60700
O456        O  0.14016421  0.63208365  0.63765154    -0.51600
C457        C  0.13550963  0.58206964  0.59769186     0.70400
O458        O  0.14556596  0.56904679  0.61002356    -0.46500
C459        C  0.08045938  0.59630056  0.63090879     0.75100
O460        O  0.13324998  0.55593277  0.64735204    -0.58400
O461        O  0.09394014  0.61478073  0.63480826    -0.48500
O462        O  0.12869839  0.58875704  0.66306525    -0.54800
C463        C  0.16304777  0.62768218  0.63611982     0.85300
O464        O  0.12358949  0.60059056  0.60341428    -0.56700
O465        O  0.09220957  0.57635826  0.62827917    -0.60000
In466      In  0.86600729  0.52306235  0.62242406     1.36900
C467        C  0.87409173  0.49683405  0.65279111     0.77700
O468        O  0.90569357  0.53200268  0.61701147    -0.60700
O469        O  0.88456909  0.55789127  0.63243310    -0.51600
C470        C  0.86341683  0.50757965  0.58764772     0.70400
O471        O  0.85991924  0.49284444  0.60082577    -0.46500
C472        C  0.82191222  0.54416310  0.62270695     0.75100
O473        O  0.88281336  0.49045832  0.63754926    -0.58400
O474        O  0.84182358  0.55606998  0.62075617    -0.48500
O475        O  0.86021926  0.51561702  0.65221898    -0.54800
C476        C  0.90504923  0.55254071  0.62528002     0.85300
O477        O  0.86847368  0.52943304  0.59252609    -0.56700
O478        O  0.82443687  0.52103901  0.62517318    -0.60000
In479      In  0.13118741  0.59744109  0.42773468     1.36900
C480        C  0.13385914  0.57021281  0.39778879     0.77700
O481        O  0.09372203  0.58200845  0.43234755    -0.60700
O482        O  0.09599389  0.61915939  0.42297848    -0.51600
C483        C  0.14067499  0.58789691  0.46254253     0.70400
O484        O  0.14430688  0.57198532  0.45015966    -0.46500
C485        C  0.16656228  0.63052575  0.42272455     0.75100
O486        O  0.13584735  0.56084991  0.41347980    -0.58400
O487        O  0.14391427  0.63648729  0.42353357    -0.48500
O488        O  0.13203533  0.59355483  0.39744069    -0.54800
C489        C  0.08218837  0.60112969  0.42722444     0.85300
O490        O  0.13212351  0.60839530  0.45703121    -0.56700
O491        O  0.17080450  0.60753750  0.42432359    -0.60000
In492      In  0.86906646  0.52329709  0.41726916     1.36900
C493        C  0.87607794  0.49529845  0.38759256     0.77700
O494        O  0.82786684  0.52440542  0.42106686    -0.60700
O495        O  0.84540439  0.55435953  0.40741454    -0.51600
C496        C  0.86778268  0.50608669  0.45156697     0.70400
O497        O  0.85954973  0.49362277  0.43829259    -0.46500
C498        C  0.90763652  0.55396448  0.41557056     0.75100
O499        O  0.88616420  0.49061992  0.40272576    -0.58400
O500        O  0.88663416  0.56116127  0.42088785    -0.48500
O501        O  0.86105169  0.51319018  0.38796049    -0.54800
C502        C  0.82556351  0.54538781  0.41359733     0.85300
O503        O  0.87776855  0.52629760  0.44708449    -0.56700
O504        O  0.90884128  0.53119131  0.41161533    -0.60000
C505        C  0.95952953  0.23476295  0.70045343     0.86600
C506        C  0.94804015  0.26050439  0.69662605    -0.53600
C507        C  0.95203805  0.26922742  0.67944366     0.09500
C508        C  0.96721930  0.25168981  0.66742369     0.20500
C509        C  0.94988870  0.21757119  0.68517195    -0.54300
C510        C  0.95362145  0.22663964  0.66797905     0.09600
C511        C  0.98710585  0.23872335  0.69549565    -0.53900
C512        C  0.99108063  0.24683822  0.67818269     0.10200
H513        H  0.93815180  0.27124278  0.70681188     0.14700
H514        H  0.97059808  0.25892183  0.65349006     0.00500
H515        H  0.94188478  0.19938736  0.68774555     0.15000
H516        H  0.00273333  0.23647097  0.70457392     0.14800
C517        C  0.20217675  0.29448834  0.70789637     0.86600
C518        C  0.17559722  0.28580600  0.70283521    -0.53600
C519        C  0.16679049  0.29440725  0.68647205     0.09500
C520        C  0.18559525  0.31106639  0.67656595     0.20500
C521        C  0.21785952  0.28645875  0.69144914    -0.54300
C522        C  0.20919293  0.29497274  0.67500701     0.09600
C523        C  0.20018862  0.32295916  0.70658512    -0.53900
C524        C  0.19148767  0.33157539  0.69039330     0.10200
H525        H  0.16393532  0.27470936  0.71158278     0.14700
H526        H  0.17896435  0.31895957  0.66358361     0.00500
H527        H  0.23342443  0.27375786  0.69264864     0.15000
H528        H  0.20425758  0.33534178  0.71787492     0.14800
C529        C  0.12633374  0.54164060  0.71223394     0.86600
C530        C  0.14208831  0.51844516  0.70802068    -0.53600
C531        C  0.13889198  0.50892891  0.69088255     0.09500
C532        C  0.11956979  0.52318566  0.67953630     0.20500
C533        C  0.13151504  0.56008592  0.69670932    -0.54300
C534        C  0.12830765  0.55039098  0.67966635     0.09600
C535        C  0.09968401  0.53235394  0.70836483    -0.53900
C536        C  0.09615095  0.52293073  0.69135803     0.10200
H537        H  0.15372148  0.50952634  0.71818086     0.14700
H538        H  0.11661932  0.51543630  0.66569469     0.00500
H539        H  0.13701726  0.57925131  0.69906462     0.15000
H540        H  0.08463183  0.53181694  0.71803184     0.14800
C541        C  0.87884037  0.47343331  0.70243309     0.86600
C542        C  0.90704149  0.47718130  0.70204168    -0.53600
C543        C  0.91809831  0.47220989  0.68583708     0.09500
C544        C  0.89987902  0.46318524  0.67119747     0.20500
C545        C  0.86930558  0.48955190  0.68642835    -0.54300
C546        C  0.88015754  0.48388230  0.67001482     0.09600
C547        C  0.87409238  0.44696703  0.69545850    -0.53900
C548        C  0.88626095  0.44081889  0.67977378     0.10200
H549        H  0.91740326  0.48412153  0.71369281     0.14700
H550        H  0.90899286  0.45944866  0.65802183     0.00500
H551        H  0.85498780  0.50359365  0.68758038     0.15000
H552        H  0.86251195  0.43379296  0.70261090     0.14800
C553        C  0.13928012  0.54434073  0.84653588     0.86600
C554        C  0.11116033  0.54225860  0.84926604    -0.53600
C555        C  0.10419210  0.53444583  0.86610307     0.09500
C556        C  0.12585930  0.52903089  0.87902443     0.20500
C557        C  0.14875934  0.56081357  0.86232715    -0.54300
C558        C  0.14178957  0.55271855  0.87931218     0.09600
C559        C  0.14859981  0.51802833  0.85178005    -0.53900
C560        C  0.14196406  0.51034912  0.86872998     0.10200
H561        H  0.09777931  0.54550107  0.83844996     0.14700
H562        H  0.12007808  0.52233013  0.89266333     0.00500
H563        H  0.16170662  0.57600871  0.86034730     0.15000
H564        H  0.15888458  0.50541766  0.84321231     0.14800
C565        C  0.89193891  0.49797469  0.83490394     0.86600
C566        C  0.90381396  0.47202139  0.83503531    -0.53600
C567        C  0.91331158  0.46468298  0.85132512     0.09500
C568        C  0.91077351  0.48443441  0.86626675     0.20500
C569        C  0.87282831  0.49702955  0.85053115    -0.54300
C570        C  0.88284490  0.49030608  0.86698020     0.09600
C571        C  0.91163644  0.51581349  0.84255701    -0.53900
C572        C  0.92278660  0.50814441  0.85837372     0.10200
H573        H  0.90365755  0.45985701  0.82321247     0.14700
H574        H  0.91820651  0.47801829  0.87947858     0.00500
H575        H  0.85350267  0.50222229  0.84918823     0.15000
H576        H  0.91670432  0.53299598  0.83590749     0.14800
C577        C  0.95121442  0.24634573  0.83497791     0.86600
C578        C  0.97949831  0.24591330  0.83749021    -0.53600
C579        C  0.98779488  0.25514127  0.85368342     0.09500
C580        C  0.96701124  0.26368362  0.86642727     0.20500
C581        C  0.94102443  0.23221474  0.85166791    -0.54300
C582        C  0.94958472  0.24103884  0.86813290     0.09600
C583        C  0.94367560  0.27352226  0.83917781    -0.53900
C584        C  0.95236380  0.28272748  0.85516454     0.10200
H585        H  0.99189994  0.23850962  0.82723780     0.14700
H586        H  0.97374005  0.27129141  0.87959866     0.00500
H587        H  0.92733608  0.21752974  0.85070755     0.15000
H588        H  0.93198507  0.28524626  0.83089983     0.14800
C589        C  0.19841063  0.29833165  0.84306774     0.86600
C590        C  0.19460335  0.32611625  0.84678667    -0.53600
C591        C  0.18612597  0.33179484  0.86374577     0.09500
C592        C  0.18305184  0.30872316  0.87599885     0.20500
C593        C  0.21685514  0.29060841  0.85826780    -0.54300
C594        C  0.20869045  0.29619283  0.87553322     0.09600
C595        C  0.17415844  0.28546532  0.84851316    -0.53900
C596        C  0.16562807  0.29123347  0.86545220     0.10200
H597        H  0.19786306  0.34022577  0.83648806     0.14700
H598        H  0.17651619  0.31250923  0.88990223     0.00500
H599        H  0.23509662  0.28287746  0.85593620     0.15000
H600        H  0.16382654  0.27370759  0.83915832     0.14800
In601      In  0.25404583  0.29888205  0.92115333     1.36900
C602        C  0.22466323  0.29514161  0.89190641     0.77700
O603        O  0.24129627  0.33616475  0.93041176    -0.60700
O604        O  0.27340404  0.33475481  0.91379830    -0.51600
C605        C  0.24644908  0.28826721  0.95616012     0.70400
O606        O  0.23111530  0.28196756  0.94391573    -0.46500
C607        C  0.29021782  0.26677146  0.91570408     0.75100
O608        O  0.21626073  0.29588374  0.90792213    -0.58400
O609        O  0.29404261  0.28982418  0.91742045    -0.48500
O610        O  0.24792333  0.29521773  0.89096856    -0.54800
C611        C  0.25849651  0.34796292  0.92278737     0.85300
O612        O  0.26544097  0.29918643  0.95024268    -0.56700
O613        O  0.26781561  0.26018037  0.91691615    -0.60000
In614      In  0.18083713  0.56720382  0.92666152     1.36900
C615        C  0.15421185  0.56073279  0.89628509     0.77700
O616        O  0.17926166  0.60916406  0.92699868    -0.60700
O617        O  0.21323531  0.59111035  0.92058134    -0.51600
C618        C  0.16876448  0.56874743  0.96193508     0.70400
O619        O  0.15254791  0.57047705  0.94952485    -0.46500
C620        C  0.20513037  0.52403341  0.92610873     0.75100
O621        O  0.14587905  0.55574587  0.91188915    -0.58400
O622        O  0.21575323  0.54462822  0.92369220    -0.48500
O623        O  0.17520948  0.57086609  0.89636496    -0.54800
C624        C  0.20194468  0.61138986  0.92301881     0.85300
O625        O  0.19058121  0.56671362  0.95614264    -0.56700
O626        O  0.18210073  0.52578234  0.92852353    -0.60000
In627      In  0.24980463  0.29583377  0.12754959     1.36900
C628        C  0.22324278  0.29431830  0.15814597     0.77700
O629        O  0.25698537  0.25522506  0.12801459    -0.60700
O630        O  0.28772260  0.27962988  0.13145397    -0.51600
C631        C  0.24210570  0.28648437  0.09250147     0.70400
O632        O  0.22550176  0.28233393  0.10430215    -0.46500
C633        C  0.25590720  0.34475346  0.12574110     0.75100
O634        O  0.21339637  0.29505122  0.14252043    -0.58400
O635        O  0.27270193  0.33071576  0.13205451    -0.48500
O636        O  0.24655649  0.29297871  0.15806563    -0.54800
C637        C  0.28017063  0.25742467  0.12967466     0.85300
O638        O  0.26165656  0.29621847  0.09867782    -0.56700
O639        O  0.23655352  0.33358113  0.12076678    -0.60000
In640      In  0.17953498  0.56088584  0.13242444     1.36900
C641        C  0.15097680  0.55782118  0.16222267     0.77700
O642        O  0.21553980  0.54046300  0.12804952    -0.60700
O643        O  0.18576725  0.52121151  0.14037927    -0.51600
C644        C  0.16296198  0.55830572  0.09779327     0.70400
O645        O  0.18166617  0.54696383  0.10372276    -0.46500
C646        C  0.20436348  0.60326187  0.13477123     0.75100
O647        O  0.14515364  0.54827931  0.14709090    -0.58400
O648        O  0.21178665  0.58318911  0.14170466    -0.48500
O649        O  0.17046056  0.57063559  0.16179393    -0.54800
C650        C  0.20773865  0.52027693  0.13461939     0.85300
O651        O  0.15167859  0.57053376  0.10992332    -0.56700
O652        O  0.18376759  0.60177228  0.12666249    -0.60000
C653        C  0.88493994  0.47268497  0.33805175     0.86600
C654        C  0.88479493  0.44537180  0.34408702    -0.53600
C655        C  0.89593370  0.44092986  0.36041382     0.09500
C656        C  0.90534327  0.46452772  0.36983488     0.20500
C657        C  0.87191324  0.48637005  0.35397717    -0.54300
C658        C  0.88278652  0.48202122  0.37064676     0.09600
C659        C  0.91186417  0.48171688  0.33977498    -0.53900
C660        C  0.92304523  0.47678026  0.35603996     0.10200
H661        H  0.87741785  0.43051941  0.33562486     0.14700
H662        H  0.91358588  0.46087691  0.38337715     0.00500
H663        H  0.85644943  0.49903508  0.35248642     0.15000
H664        H  0.92058854  0.49234377  0.32908369     0.14800
C665        C  0.13040697  0.54560524  0.34877878     0.86600
C666        C  0.10332237  0.53813687  0.35205034    -0.53600
C667        C  0.09851190  0.52981932  0.36916626     0.09500
C668        C  0.12152119  0.52849934  0.38154102     0.20500
C669        C  0.13671060  0.56399471  0.36415131    -0.54300
C670        C  0.13206182  0.55499782  0.38122441     0.09600
C671        C  0.14450450  0.52151392  0.35371190    -0.53900
C672        C  0.14048592  0.51285987  0.37093975     0.10200
H673        H  0.08898280  0.53922552  0.34168363     0.14700
H674        H  0.11740565  0.52156239  0.39543119     0.00500
H675        H  0.14352736  0.58269182  0.36169173     0.15000
H676        H  0.15500180  0.51061281  0.34404432     0.14800
C677        C  0.94622574  0.22913759  0.33449294     0.86600
C678        C  0.97201645  0.24105219  0.33676963    -0.53600
C679        C  0.97633416  0.25148048  0.35339919     0.09500
C680        C  0.95398085  0.25005058  0.36622147     0.20500
C681        C  0.94352686  0.21130717  0.35067761    -0.54300
C682        C  0.94752791  0.22227732  0.36722637     0.09600
C683        C  0.92856471  0.25093372  0.33891086    -0.53900
C684        C  0.93271709  0.26196534  0.35538813     0.10200
H685        H  0.98599232  0.24094025  0.32616696     0.14700
H686        H  0.95745994  0.25849078  0.37975120     0.00500
H687        H  0.93910462  0.19171425  0.34913648     0.15000
H688        H  0.91568352  0.25911791  0.32930873     0.14800
C689        C  0.19146406  0.29949063  0.34403210     0.86600
C690        C  0.19193122  0.32769194  0.34801418    -0.53600
C691        C  0.18230333  0.33429448  0.36451167     0.09500
C692        C  0.17224637  0.31226901  0.37546141     0.20500
C693        C  0.20394863  0.28709224  0.36059729    -0.54300
C694        C  0.19395040  0.29382723  0.37703481     0.09600
C695        C  0.16367801  0.29340398  0.34611388    -0.53900
C696        C  0.15376017  0.29988336  0.36244522     0.10200
H697        H  0.19738020  0.34159574  0.33812480     0.14700
H698        H  0.16365865  0.31767533  0.38857433     0.00500
H699        H  0.21900030  0.27380083  0.35935984     0.15000
H700        H  0.15220691  0.28576167  0.33531868     0.14800
C701        C  0.95586732  0.23151604  0.19995078     0.86600
C702        C  0.94588228  0.25824666  0.19769922    -0.53600
C703        C  0.95142410  0.26931745  0.18152269     0.09500
C704        C  0.96657049  0.25270421  0.16868654     0.20500
C705        C  0.94552635  0.21762119  0.18309728    -0.54300
C706        C  0.95117707  0.22869600  0.16684613     0.09600
C707        C  0.98373160  0.23351150  0.19578713    -0.53900
C708        C  0.98936955  0.24496123  0.17980407     0.10200
H709        H  0.93581926  0.26794055  0.20834806     0.14700
H710        H  0.97109502  0.26194590  0.15559530     0.00500
H711        H  0.93480875  0.20080059  0.18311097     0.15000
H712        H  0.99803608  0.22762178  0.20529683     0.14800
C713        C  0.19921603  0.29620995  0.20782195     0.86600
C714        C  0.17364424  0.28645874  0.20165213    -0.53600
C715        C  0.16573445  0.29477520  0.18509788     0.09500
C716        C  0.18450047  0.31175218  0.17562767     0.20500
C717        C  0.21665586  0.28852265  0.19193724    -0.54300
C718        C  0.20872822  0.29671917  0.17513141     0.09600
C719        C  0.19773694  0.32452082  0.20574842    -0.53900
C720        C  0.18965002  0.33277106  0.18931275     0.10200
H721        H  0.16229203  0.27443021  0.21009441     0.14700
H722        H  0.17825378  0.31808197  0.16205281     0.00500
H723        H  0.23369885  0.27823292  0.19312274     0.15000
H724        H  0.20144085  0.33721660  0.21695730     0.14800
C725        C  0.12937288  0.54885514  0.21213405     0.86600
C726        C  0.13848283  0.52191353  0.20987844    -0.53600
C727        C  0.13473274  0.51126047  0.19312385     0.09500
C728        C  0.12084453  0.52894410  0.18013309     0.20500
C729        C  0.14209951  0.56266086  0.19598142    -0.54300
C730        C  0.13744670  0.55198613  0.17927225     0.09600
C731        C  0.10194848  0.54806249  0.20657815    -0.53900
C732        C  0.09742731  0.53703563  0.19033863     0.10200
H733        H  0.14689485  0.51202405  0.22118495     0.14700
H734        H  0.11672788  0.52190856  0.16646416     0.00500
H735        H  0.15434721  0.57837925  0.19695188     0.15000
H736        H  0.08700756  0.55406784  0.21544805     0.14800
C737        C  0.88072969  0.48280461  0.20582888     0.86600
C738        C  0.90430883  0.49854468  0.20290811    -0.53600
C739        C  0.91864755  0.49179317  0.18851255     0.09500
C740        C  0.90663410  0.47117394  0.17685090     0.20500
C741        C  0.86647840  0.48601824  0.18792148    -0.54300
C742        C  0.87994236  0.48015634  0.17267986     0.09600
C743        C  0.89028466  0.45567230  0.20535106    -0.53900
C744        C  0.90360566  0.44944581  0.19024047     0.10200
H745        H  0.90984928  0.51370544  0.21148398     0.14700
H746        H  0.91734082  0.46592472  0.16458490     0.00500
H747        H  0.84732175  0.49217077  0.18737693     0.15000
H748        H  0.88654901  0.44231056  0.21605560     0.14800
In749      In  0.22491556  0.25970381  0.62620553     1.36900
C750        C  0.21753847  0.28447583  0.65736622     0.77700
O751        O  0.18526547  0.25455771  0.61903821    -0.60700
O752        O  0.20223627  0.22722258  0.63585074    -0.51600
C753        C  0.22968671  0.27891784  0.59293520     0.70400
O754        O  0.23699305  0.29067907  0.60688845    -0.46500
C755        C  0.26537745  0.23222462  0.62456298     0.75100
O756        O  0.21054458  0.29283221  0.64213286    -0.58400
O757        O  0.24413796  0.22409064  0.62076450    -0.48500
O758        O  0.23031256  0.26492411  0.65637945    -0.54800
C759        C  0.18287151  0.23466884  0.62793210     0.85300
O760        O  0.21957618  0.25838394  0.59630174    -0.56700
O761        O  0.26597624  0.25461418  0.62976598    -0.60000
In762      In  0.95595236  0.18608715  0.62085131     1.36900
C763        C  0.95065497  0.21168885  0.65135459     0.77700
O764        O  0.91775393  0.17056302  0.62098858    -0.60700
O765        O  0.94806987  0.14543710  0.62425667    -0.51600
C766        C  0.94912343  0.19740712  0.58594218     0.70400
O767        O  0.93939168  0.20990989  0.59863297    -0.46500
C768        C  0.00473382  0.18961047  0.62286175     0.75100
O769        O  0.94799222  0.22145122  0.63585563    -0.58400
O770        O  0.99386951  0.16895853  0.62506996    -0.48500
O771        O  0.95329838  0.18840427  0.65127537    -0.54800
C772        C  0.92489895  0.14831266  0.62274597     0.85300
O773        O  0.96213609  0.17932013  0.59131457    -0.56700
O774        O  0.99049813  0.20729471  0.61892840    -0.60000
In775      In  0.21161836  0.26058117  0.42647782     1.36900
C776        C  0.20158130  0.28282363  0.39466229     0.77700
O777        O  0.25265328  0.26133757  0.42129412    -0.60700
O778        O  0.23544779  0.22690015  0.42800018    -0.51600
C779        C  0.21804202  0.28085396  0.45948037     0.70400
O780        O  0.22294017  0.29267081  0.44508241    -0.46500
C781        C  0.17014222  0.23381548  0.42792386     0.75100
O782        O  0.19565885  0.29209416  0.40981895    -0.58400
O783        O  0.19093267  0.22441503  0.42421887    -0.48500
O784        O  0.21363755  0.26283577  0.39581277    -0.54800
C785        C  0.25517870  0.23837001  0.42431539     0.85300
O786        O  0.20933898  0.25947271  0.45681603    -0.56700
O787        O  0.17090064  0.25687793  0.43110088    -0.60000
In788      In  0.94887273  0.18345130  0.41558610     1.36900
C789        C  0.94710725  0.20849078  0.38452122     0.77700
O790        O  0.98644288  0.19655176  0.42273639    -0.60700
O791        O  0.98341669  0.16038765  0.41110689    -0.51600
C792        C  0.94186162  0.19577072  0.45014385     0.70400
O793        O  0.93800839  0.21106664  0.43734663    -0.46500
C794        C  0.91173638  0.15186360  0.41244527     0.75100
O795        O  0.94523792  0.21906690  0.39981125    -0.58400
O796        O  0.93403350  0.14481199  0.41359528    -0.48500
O797        O  0.94922843  0.18518916  0.38518285    -0.54800
C798        C  0.99726947  0.17698385  0.41780431     0.85300
O799        O  0.94785849  0.17419695  0.44503326    -0.56700
O800        O  0.90856473  0.17514050  0.41261650    -0.60000
C801        C  0.06022288  0.18116704  0.43920338    -0.22300
C802        C  0.07487630  0.18471535  0.42372647     0.09600
C803        C  0.06458379  0.18054206  0.40627783     0.10000
C804        C  0.03918449  0.17522714  0.40469431    -0.17200
C805        C  0.02409748  0.17436530  0.42015698    -0.27700
C806        C  0.03484562  0.17636349  0.43764170     0.18400
C807        C  0.09950092  0.19649515  0.42604592     0.12300
C808        C  0.07997443  0.18328343  0.38933974    -0.12000
H809        H  0.03075182  0.17373631  0.39133191     0.12600
C810        C  0.01985451  0.17458060  0.45488504    -0.22900
H811        H  0.06830562  0.18388932  0.45258602     0.08300
C812        C  0.10143799  0.22161364  0.43148401     0.04600
C813        C  0.12486888  0.23254409  0.43299167    -0.20100
C814        C  0.14649354  0.21959011  0.42816443    -0.12400
C815        C  0.14451266  0.19426871  0.42280061     0.13300
C816        C  0.12101369  0.18298163  0.42210632    -0.22800
C817        C  0.07875965  0.23739197  0.43482865    -0.05900
H818        H  0.12611537  0.25185071  0.43713893     0.14800
C819        C  0.16675953  0.17905202  0.41740212    -0.16100
H820        H  0.11930587  0.16368240  0.41802915     0.09200
H821        H  0.02067089  0.19256948  0.46229628     0.07000
H822        H  0.02768351  0.15975869  0.46370558     0.08200
H823        H  0.00013650  0.16992251  0.45235179     0.07300
H824        H  0.09499189  0.16918417  0.38932785     0.02100
H825        H  0.08828714  0.20214530  0.38888588     0.02600
H826        H  0.06872937  0.18060075  0.37681057     0.06100
H827        H  0.08369513  0.25699283  0.43794964     0.05100
H828        H  0.06814626  0.23005489  0.44654971    -0.00700
H829        H  0.06679856  0.23740629  0.42250671     0.00800
H830        H  0.18004410  0.17800122  0.42893324     0.04500
H831        H  0.17585177  0.18755726  0.40539045     0.06400
H832        H  0.16157177  0.15972052  0.41365148     0.07300
C833        C  0.92393178  0.21616901  0.53906491    -0.22300
C834        C  0.94369953  0.20874904  0.52799467     0.09600
C835        C  0.96554488  0.19954954  0.53609437     0.10000
C836        C  0.96679295  0.19712834  0.55505819    -0.17200
C837        C  0.94658745  0.20326025  0.56625781    -0.27700
C838        C  0.92484370  0.21326092  0.55809087     0.18400
C839        C  0.94016987  0.20748194  0.50798007     0.12300
C840        C  0.98720045  0.19133294  0.52465343    -0.12000
H841        H  0.98355814  0.18973583  0.56116184     0.12600
C842        C  0.90158219  0.21959282  0.56843648    -0.22900
H843        H  0.90709245  0.22298335  0.53270347     0.08300
C844        C  0.92876120  0.18656780  0.49996219     0.04600
C845        C  0.92869751  0.18406387  0.48098512    -0.20100
C846        C  0.93983436  0.20190307  0.46972162    -0.12400
C847        C  0.95087387  0.22323154  0.47776696     0.13300
C848        C  0.95059254  0.22582965  0.49682524    -0.22800
C849        C  0.91744239  0.16639858  0.51149331    -0.05900
H850        H  0.92043785  0.16765863  0.47488812     0.14800
C851        C  0.96460626  0.24276694  0.46707592    -0.16100
H852        H  0.95965135  0.24168503  0.50308781     0.09200
H853        H  0.88574545  0.20910690  0.56254855     0.07000
H854        H  0.89773380  0.23980403  0.56712324     0.08200
H855        H  0.90222929  0.21484953  0.58301390     0.07300
H856        H  0.99411015  0.20723256  0.51648878     0.02100
H857        H  0.98136104  0.17613164  0.51535137     0.02600
H858        H  0.00276772  0.18433803  0.53314190     0.06100
H859        H  0.90960933  0.15114592  0.50306079     0.05100
H860        H  0.90224239  0.17428089  0.51984857    -0.00700
H861        H  0.93175354  0.15828852  0.52061020     0.00800
H862        H  0.95536925  0.26105267  0.46889660     0.04500
H863        H  0.96575033  0.23881924  0.45235894     0.06400
H864        H  0.98392506  0.24415026  0.47222733     0.07300
C865        C  0.22577851  0.31425866  0.54792012    -0.22300
C866        C  0.23369513  0.29560747  0.53586078     0.09600
C867        C  0.24277257  0.27296553  0.54294124     0.10000
C868        C  0.24259317  0.26901698  0.56178037    -0.17200
C869        C  0.23335865  0.28699247  0.57386020    -0.27700
C870        C  0.22527567  0.31018346  0.56687462     0.18400
C871        C  0.22849417  0.29790110  0.51602984     0.12300
C872        C  0.25137349  0.25235772  0.53054246    -0.12000
H873        H  0.24876031  0.25124260  0.56710307     0.12600
C874        C  0.21434664  0.33027769  0.57867454    -0.22900
H875        H  0.21851164  0.33150493  0.54243952     0.08300
C876        C  0.20496970  0.29132556  0.50912767     0.04600
C877        C  0.20190323  0.28756344  0.49037361    -0.20100
C878        C  0.22166651  0.29053275  0.47819878    -0.12400
C879        C  0.24484004  0.29900138  0.48494879     0.13300
C880        C  0.24793221  0.30252547  0.50383393    -0.22800
C881        C  0.18336656  0.28700297  0.52168705    -0.05900
H882        H  0.18414335  0.28122003  0.48523229     0.14800
C883        C  0.26714577  0.30292750  0.47299968    -0.16100
H884        H  0.26600979  0.30752526  0.50916942     0.09200
H885        H  0.19510523  0.33425608  0.57413539     0.07000
H886        H  0.22555587  0.34748782  0.57734978     0.08200
H887        H  0.21360796  0.32523358  0.59324698     0.07300
H888        H  0.26724711  0.25889678  0.52225705     0.02100
H889        H  0.23602928  0.24662116  0.52136146     0.02600
H890        H  0.25748407  0.23572130  0.53830727     0.06100
H891        H  0.16636363  0.28165852  0.51409358     0.05100
H892        H  0.17930592  0.30430178  0.52937671    -0.00700
H893        H  0.18780736  0.27183609  0.53141006     0.00800
H894        H  0.27337074  0.32255192  0.47415630     0.04500
H895        H  0.26360290  0.29896683  0.45846825     0.06400
H896        H  0.28242483  0.29055177  0.47755203     0.07300
C897        C  0.06827853  0.21955793  0.62759934    -0.22300
C898        C  0.08350372  0.19862258  0.62848787     0.09600
C899        C  0.07307217  0.17465068  0.62800329     0.10000
C900        C  0.04724078  0.17215926  0.62645679    -0.17200
C901        C  0.03183099  0.19318471  0.62491981    -0.27700
C902        C  0.04265333  0.21730094  0.62553164     0.18400
C903        C  0.11042650  0.20288780  0.62812891     0.12300
C904        C  0.08928741  0.15189232  0.62866675    -0.12000
H905        H  0.03914980  0.15372252  0.62602467     0.12600
C906        C  0.02776666  0.24094573  0.62368179    -0.22900
H907        H  0.07672390  0.23786021  0.62785744     0.08300
C908        C  0.12248551  0.20854781  0.61163616     0.04600
C909        C  0.14663011  0.21783482  0.61215148    -0.20100
C910        C  0.15905730  0.22151419  0.62868841    -0.12400
C911        C  0.14733929  0.21491270  0.64523027     0.13300
C912        C  0.12308578  0.20555056  0.64467575    -0.22800
C913        C  0.11010457  0.20587002  0.59331577    -0.05900
H914        H  0.15562118  0.22291293  0.59950176     0.14800
C915        C  0.15886337  0.21900133  0.66371337    -0.16100
H916        H  0.11346869  0.20164367  0.65729533     0.09200
H917        H  0.03946775  0.25782434  0.62516608     0.07000
H918        H  0.01330694  0.24175626  0.63433983     0.08200
H919        H  0.01901994  0.24175567  0.61001085     0.07300
H920        H  0.10012655  0.15180069  0.64152654     0.02100
H921        H  0.10224914  0.15201305  0.61695896     0.02600
H922        H  0.07820938  0.13450744  0.62802577     0.06100
H923        H  0.10895752  0.22435088  0.58662860     0.05100
H924        H  0.09112729  0.19809242  0.59415528    -0.00700
H925        H  0.12123415  0.19320212  0.58463938     0.00800
H926        H  0.14667699  0.23123149  0.67195364     0.04500
H927        H  0.17731522  0.22788512  0.66322247     0.06400
H928        H  0.16078179  0.20086522  0.67078966     0.07300
C929        C  0.03658926  0.50229942  0.18662840    -0.22300
C930        C  0.02129232  0.52052484  0.17891682     0.09600
C931        C  0.03142165  0.54386754  0.17421556     0.10000
C932        C  0.05696469  0.54793129  0.17663134    -0.17200
C933        C  0.07197891  0.52999540  0.18506357    -0.27700
C934        C  0.06135331  0.50722508  0.19078126     0.18400
C935        C  0.99428807  0.51623572  0.18021820     0.12300
C936        C  0.01513273  0.56508980  0.16818059    -0.12000
H937        H  0.06491849  0.56581026  0.17314998     0.12600
C938        C  0.07458019  0.48849837  0.20262398    -0.22900
H939        H  0.02845269  0.48489711  0.19109951     0.08300
C940        C  0.97954783  0.50864714  0.16537161     0.04600
C941        C  0.95459358  0.50224025  0.16837736    -0.20100
C942        C  0.94465542  0.50109990  0.18607701    -0.12400
C943        C  0.96044353  0.50721183  0.20107584     0.13300
C944        C  0.98436833  0.51591383  0.19772089    -0.22800
C945        C  0.99044264  0.50581373  0.14664179    -0.05900
H946        H  0.94310444  0.49735986  0.15682739     0.14800
C947        C  0.95412529  0.50230276  0.22079080    -0.16100
H948        H  0.99625143  0.52086691  0.20910268     0.09200
H949        H  0.07535969  0.47021495  0.19562283     0.07000
H950        H  0.06421114  0.48616718  0.21553983     0.08200
H951        H  0.09356827  0.49407513  0.20631658     0.07300
H952        H  0.00113026  0.56909597  0.17882796     0.02100
H953        H  0.00550377  0.56040985  0.15532287     0.02600
H954        H  0.02601687  0.58232217  0.16585603     0.06100
H955        H  0.97655443  0.49871878  0.13674337     0.05100
H956        H  0.00608251  0.49240117  0.14711249    -0.00700
H957        H  0.99731933  0.52389466  0.14155745     0.00800
H958        H  0.97113441  0.49975520  0.22914280     0.04500
H959        H  0.94340153  0.48483803  0.22227105     0.06400
H960        H  0.94409762  0.51839867  0.22669011     0.07300
C961        C  0.18282046  0.39968219  0.17293523    -0.22300
C962        C  0.16731829  0.40911261  0.18659333     0.09600
C963        C  0.15836198  0.39336475  0.20034119     0.10000
C964        C  0.16614377  0.36868650  0.20068252    -0.17200
C965        C  0.18182997  0.35899057  0.18718716    -0.27700
C966        C  0.19018577  0.37459512  0.17301098     0.18400
C967        C  0.16086616  0.43566508  0.18668735     0.12300
C968        C  0.14029051  0.40247248  0.21449774    -0.12000
H969        H  0.15954184  0.35662384  0.21145696     0.12600
C970        C  0.20766060  0.36537093  0.15855508    -0.22900
H971        H  0.18939934  0.41209319  0.16237713     0.08300
C972        C  0.17307581  0.45240709  0.19828216     0.04600
C973        C  0.16488853  0.47704016  0.19905792    -0.20100
C974        C  0.14421880  0.48548332  0.18891050    -0.12400
C975        C  0.13318990  0.46859493  0.17622409     0.13300
C976        C  0.14154534  0.44387393  0.17560603    -0.22800
C977        C  0.19537310  0.44450157  0.20931222    -0.05900
H978        H  0.17515341  0.48980146  0.20760069     0.14800
C979        C  0.11321778  0.47554113  0.16282835    -0.16100
H980        H  0.13287117  0.43064365  0.16644502     0.09200
H981        H  0.22454529  0.35742100  0.16496391     0.07000
H982        H  0.21349804  0.38063960  0.14933864     0.08200
H983        H  0.19853136  0.35101329  0.15006580     0.07300
H984        H  0.12322219  0.40936359  0.20770603     0.02100
H985        H  0.14853559  0.41778690  0.22259787     0.02600
H986        H  0.13490719  0.38744397  0.22406651     0.06100
H987        H  0.20318662  0.46018099  0.21732103     0.05100
H988        H  0.21006441  0.43749393  0.20008671    -0.00700
H989        H  0.19031047  0.42951272  0.21895714     0.00800
H990        H  0.12118514  0.48754416  0.15206790     0.04500
H991        H  0.09749903  0.48466084  0.16967716     0.06400
H992        H  0.10551995  0.45901231  0.15571858     0.07300
C993        C  0.93214320  0.38472271  0.19669416    -0.22300
C994        C  0.92845610  0.37420805  0.17944912     0.09600
C995        C  0.91800340  0.38902745  0.16551419     0.10000
C996        C  0.91030224  0.41342747  0.16945862    -0.17200
C997        C  0.91362028  0.42390853  0.18682448    -0.27700
C998        C  0.92569539  0.40952680  0.20041953     0.18400
C999        C  0.93458291  0.34736608  0.17696026     0.12300
C1000       C  0.91500306  0.37984367  0.14632935    -0.12000
H1001       H  0.90136863  0.42424452  0.15885648     0.12600
C1002       C  0.93315468  0.41975124  0.21873425    -0.22900
H1003       H  0.94054083  0.37352973  0.20731973     0.08300
C1004       C  0.95930282  0.33885205  0.17573784     0.04600
C1005       C  0.96419093  0.31311101  0.17605032    -0.20100
C1006       C  0.94492668  0.29572108  0.17771185    -0.12400
C1007       C  0.92009915  0.30423986  0.17768822     0.13300
C1008       C  0.91528969  0.32992848  0.17748790    -0.22800
C1009       C  0.98050420  0.35694782  0.17445495    -0.05900
H1010       H  0.98319474  0.30657760  0.17589198     0.14800
C1011       C  0.89826911  0.28677268  0.17780720    -0.16100
H1012       H  0.89635932  0.33643866  0.17836278     0.09200
H1013       H  0.95310304  0.41587283  0.22117341     0.07000
H1014       H  0.92213681  0.41059535  0.22956406     0.08200
H1015       H  0.93095430  0.44014423  0.21978758     0.07300
H1016       H  0.92493785  0.39249529  0.13690312     0.02100
H1017       H  0.92276556  0.36096324  0.14445181     0.02600
H1018       H  0.89504808  0.37969089  0.14264791     0.06100
H1019       H  0.99860585  0.34723314  0.17334014     0.05100
H1020       H  0.98107834  0.36889986  0.18676204    -0.00700
H1021       H  0.97807095  0.36883607  0.16223201     0.00800
H1022       H  0.88734049  0.28965812  0.19040569     0.04500
H1023       H  0.90377509  0.26693868  0.17703294     0.06400
H1024       H  0.88626206  0.29068715  0.16584888     0.07300
C1025       C  0.05301801  0.25379164  0.15826839    -0.22300
C1026       C  0.06492758  0.26735970  0.17205536     0.09600
C1027       C  0.05155912  0.27451040  0.18770247     0.10000
C1028       C  0.02674400  0.26755605  0.18932038    -0.17200
C1029       C  0.01496766  0.25319891  0.17591952    -0.27700
C1030       C  0.02816137  0.24637320  0.16007118     0.18400
C1031       C  0.09167817  0.27308765  0.17064891     0.12300
C1032       C  0.06361490  0.28876232  0.20305118    -0.12000
H1033       H  0.01649246  0.27296792  0.20136777     0.12600
C1034       C  0.01715235  0.23043059  0.14526721    -0.22900
H1035       H  0.06338502  0.24835017  0.14629236     0.08300
C1036       C  0.10981914  0.25498778  0.17461259     0.04600
C1037       C  0.13432749  0.26254535  0.17783339    -0.20100
C1038       C  0.14096834  0.28782427  0.17764325    -0.12400
C1039       C  0.12291726  0.30572740  0.17253980     0.13300
C1040       C  0.09869422  0.29795000  0.16861358    -0.22800
C1041       C  0.10307155  0.22792448  0.17644445    -0.05900
H1042       H  0.14812379  0.24877541  0.18152213     0.14800
C1043       C  0.12785046  0.33320997  0.17319931    -0.16100
H1044       H  0.08451989  0.31163560  0.16557359     0.09200
H1045       H  0.02866536  0.21348973  0.14346599     0.07000
H1046       H  0.01686349  0.24098960  0.13229226     0.08200
H1047       H  0.99807227  0.22424356  0.14828901     0.07300
H1048       H  0.06968872  0.30731953  0.19822504     0.02100
H1049       H  0.07987727  0.27828187  0.20826917     0.02600
H1050       H  0.05067247  0.29175138  0.21457261     0.06100
H1051       H  0.11942745  0.21633285  0.17998031     0.05100
H1052       H  0.09538532  0.22097638  0.16337629    -0.00700
H1053       H  0.08903209  0.22557753  0.18732142     0.00800
H1054       H  0.14245064  0.33848327  0.16340335     0.04500
H1055       H  0.13317703  0.33823624  0.18724320     0.06400
H1056       H  0.11113559  0.34429402  0.16969259     0.07300
C1057       C  0.22474286  0.27601733  0.25598029    -0.22300
C1058       C  0.20603271  0.28586938  0.26707388     0.09600
C1059       C  0.18589616  0.29815959  0.25891366     0.10000
C1060       C  0.18457640  0.29973272  0.23995896    -0.17200
C1061       C  0.20331448  0.29033472  0.22833161    -0.27700
C1062       C  0.22390487  0.27824050  0.23676021     0.18400
C1063       C  0.20791877  0.28451373  0.28727761     0.12300
C1064       C  0.16610337  0.31055719  0.27023298    -0.12000
H1065       H  0.16883673  0.30937184  0.23406348     0.12600
C1066       C  0.24540306  0.26806084  0.22621932    -0.22900
H1067       H  0.24033807  0.26689242  0.26248196     0.08300
C1068       C  0.19368205  0.26749660  0.29740933     0.04600
C1069       C  0.19121540  0.27091086  0.31628776    -0.20100
C1070       C  0.20196147  0.29149963  0.32531545    -0.12400
C1071       C  0.22004567  0.30536234  0.31554488     0.13300
C1072       C  0.22193812  0.30242832  0.29656008    -0.22800
C1073       C  0.18047876  0.24621083  0.28820994    -0.05900
H1074       H  0.17964730  0.25811630  0.32381560     0.14800
C1075       C  0.23845676  0.32244288  0.32458637    -0.16100
H1076       H  0.23411722  0.31452823  0.28890161     0.09200
H1077       H  0.25955161  0.25950706  0.23526589     0.07000
H1078       H  0.25476028  0.28337462  0.21882068     0.08200
H1079       H  0.23888656  0.25323416  0.21686327     0.07300
H1080       H  0.17467040  0.32481791  0.27918988     0.02100
H1081       H  0.15643880  0.29663341  0.27877109     0.02600
H1082       H  0.15195525  0.31995582  0.26164984     0.06100
H1083       H  0.17018799  0.23457455  0.29812259     0.05100
H1084       H  0.19421276  0.23420785  0.28120797    -0.00700
H1085       H  0.16701004  0.25330303  0.27803623     0.00800
H1086       H  0.25749223  0.31705788  0.32044687     0.04500
H1087       H  0.23796237  0.32114863  0.33962263     0.06400
H1088       H  0.23509154  0.34193872  0.32024828     0.07300
C1089       C  0.96236523  0.19922140  0.28853111    -0.22300
C1090       C  0.94347249  0.20906234  0.27760408     0.09600
C1091       C  0.92226913  0.21913430  0.28594236     0.10000
C1092       C  0.92204945  0.22240855  0.30487198    -0.17200
C1093       C  0.94301782  0.21686193  0.31566334    -0.27700
C1094       C  0.96212650  0.20231724  0.30751922     0.18400
C1095       C  0.94784828  0.21248655  0.25782433     0.12300
C1096       C  0.90045062  0.22779946  0.27477523    -0.12000
H1097       H  0.90563011  0.23025106  0.31094039     0.12600
C1098       C  0.98312257  0.19059231  0.31806936    -0.22900
H1099       H  0.97811201  0.19031325  0.28211176     0.08300
C1100       C  0.96311987  0.23191710  0.25172373     0.04600
C1101       C  0.96478947  0.23675338  0.23309337    -0.20100
C1102       C  0.95193467  0.22261464  0.21982446    -0.12400
C1103       C  0.93635322  0.20294922  0.22622228     0.13300
C1104       C  0.93479949  0.19819928  0.24509662    -0.22800
C1105       C  0.97713855  0.24823257  0.26492971    -0.05900
H1106       H  0.97620686  0.25224632  0.22879945     0.14800
C1107       C  0.92037509  0.18721340  0.21405269    -0.16100
H1108       H  0.92283056  0.18354689  0.25008504     0.09200
H1109       H  0.00101336  0.19885382  0.31373347     0.07000
H1110       H  0.98355909  0.17031189  0.31522370     0.08200
H1111       H  0.98140459  0.19275556  0.33296130     0.07300
H1112       H  0.89249660  0.21185804  0.26714412     0.02100
H1113       H  0.90643309  0.24235538  0.26502138     0.02600
H1114       H  0.88558314  0.23577792  0.28341349     0.06100
H1115       H  0.98772579  0.26305529  0.25786765     0.05100
H1116       H  0.99055207  0.23686439  0.27281662    -0.00700
H1117       H  0.96398921  0.25733681  0.27443093     0.00800
H1118       H  0.93223140  0.17520778  0.20543227     0.04500
H1119       H  0.90780157  0.19924162  0.20594174     0.06400
H1120       H  0.90830812  0.17442078  0.22191643     0.07300
C1121       C  0.03011837  0.29258364  0.36901861    -0.22300
C1122       C  0.05026123  0.27697447  0.36519050     0.09600
C1123       C  0.04589703  0.25282285  0.35832852     0.10000
C1124       C  0.02150725  0.24485987  0.35551544    -0.17200
C1125       C  0.00129825  0.26071322  0.35865395    -0.27700
C1126       C  0.00565973  0.28500041  0.36541322     0.18400
C1127       C  0.07585408  0.28678142  0.36677627     0.12300
C1128       C  0.06692651  0.23582292  0.35306887    -0.12000
H1129       H  0.01817927  0.22630028  0.35026568     0.12600
C1130       C  0.98508599  0.30368625  0.36749774    -0.22900
H1131       H  0.03366418  0.31116346  0.37411928     0.08300
C1132       C  0.08508903  0.30420467  0.35410936     0.04600
C1133       C  0.11050951  0.30946242  0.35391613    -0.20100
C1134       C  0.12689328  0.29748854  0.36588640    -0.12400
C1135       C  0.11752585  0.28115476  0.37918437     0.13300
C1136       C  0.09197867  0.27624210  0.37965087    -0.22800
C1137       C  0.06847327  0.31621714  0.34012638    -0.05900
H1138       H  0.11787615  0.32209801  0.34378881     0.14800
C1139       C  0.13453237  0.26763127  0.39204252    -0.16100
H1140       H  0.08470966  0.26304303  0.38942477     0.09200
H1141       H  0.99220853  0.32218816  0.37174086     0.07000
H1142       H  0.97175303  0.29759053  0.37799198     0.08200
H1143       H  0.97552849  0.30608820  0.35424950     0.07300
H1144       H  0.07839675  0.23138938  0.36515128     0.02100
H1145       H  0.07865601  0.24500497  0.34266165     0.02600
H1146       H  0.06012501  0.21798153  0.34729458     0.06100
H1147       H  0.07900943  0.32858155  0.33084275     0.05100
H1148       H  0.05419454  0.32770348  0.34697723    -0.00700
H1149       H  0.05928203  0.30168999  0.33175396     0.00800
H1150       H  0.14392483  0.28109720  0.40117435     0.04500
H1151       H  0.14860475  0.25695198  0.38429386     0.06400
H1152       H  0.12409654  0.25430001  0.40053974     0.07300
C1153       C  0.11889140  0.57527612  0.30168942    -0.22300
C1154       C  0.13693929  0.56319956  0.29126388     0.09600
C1155       C  0.15592340  0.54993093  0.30013860     0.10000
C1156       C  0.15503336  0.54695834  0.31907987    -0.17200
C1157       C  0.13487075  0.55582797  0.32944340    -0.27700
C1158       C  0.11804748  0.57249651  0.32070985     0.18400
C1159       C  0.13397163  0.56184623  0.27117810     0.12300
C1160       C  0.17647824  0.53780741  0.28949704    -0.12000
H1161       H  0.17004461  0.53701488  0.32554926     0.12600
C1162       C  0.09867960  0.58739952  0.33070407    -0.22900
H1163       H  0.10483858  0.58630269  0.29486012     0.08300
C1164       C  0.11821176  0.54395491  0.26343239     0.04600
C1165       C  0.11734037  0.54134447  0.24452878    -0.20100
C1166       C  0.13174230  0.55610774  0.23255581    -0.12400
C1167       C  0.14761196  0.57432952  0.24060349     0.13300
C1168       C  0.14832929  0.57690284  0.25977174    -0.22800
C1169       C  0.10279798  0.52693838  0.27517079    -0.05900
H1170       H  0.10553117  0.52688905  0.23897342     0.14800
C1171       C  0.16455618  0.59068881  0.22976179    -0.16100
H1172       H  0.16064542  0.59038143  0.26600536     0.09200
H1173       H  0.07989437  0.58123508  0.32645841     0.07000
H1174       H  0.10080981  0.60739096  0.32726590     0.08200
H1175       H  0.10019046  0.58598834  0.34566223     0.07300
H1176       H  0.18693245  0.55217727  0.28187448     0.02100
H1177       H  0.16859245  0.52413203  0.27974857     0.02600
H1178       H  0.18971563  0.52782184  0.29849849     0.06100
H1179       H  0.09170209  0.51367142  0.26690962     0.05100
H1180       H  0.08976887  0.53808781  0.28351816    -0.00700
H1181       H  0.11505127  0.51597104  0.28430141     0.00800
H1182       H  0.15344328  0.60299702  0.22079953     0.04500
H1183       H  0.17777336  0.57905264  0.22195366     0.06400
H1184       H  0.17585555  0.60304650  0.23861484     0.07300
C1185       C  0.18000665  0.45473194  0.37250917    -0.22300
C1186       C  0.16290156  0.43781561  0.37961324     0.09600
C1187       C  0.14096832  0.44663611  0.38771803     0.10000
C1188       C  0.13518336  0.47204603  0.38652775    -0.17200
C1189       C  0.15082887  0.48860824  0.37723996    -0.27700
C1190       C  0.17458359  0.48018262  0.37174515     0.18400
C1191       C  0.16697020  0.41102087  0.37631985     0.12300
C1192       C  0.12322708  0.42906343  0.39687636    -0.12000
H1193       H  0.11773606  0.47847972  0.39182134     0.12600
C1194       C  0.19464801  0.49742252  0.36511289    -0.22900
H1195       H  0.19733570  0.44793853  0.36698895     0.08300
C1196       C  0.15792610  0.39979339  0.36027191     0.04600
C1197       C  0.16302470  0.37468142  0.35696985    -0.20100
C1198       C  0.17706610  0.36054790  0.36928576    -0.12400
C1199       C  0.18591641  0.37171700  0.38547511     0.13300
C1200       C  0.18079001  0.39697033  0.38878457    -0.22800
C1201       C  0.14313388  0.41442103  0.34651476    -0.05900
H1202       H  0.15606798  0.36599655  0.34466738     0.14800
C1203       C  0.20148073  0.35743492  0.39892207    -0.16100
H1204       H  0.18775097  0.40586738  0.40099544     0.09200
H1205       H  0.19864900  0.49357555  0.35056992     0.07000
H1206       H  0.21178744  0.49428101  0.37318388     0.08200
H1207       H  0.18972147  0.51731286  0.36676646     0.07300
H1208       H  0.13284166  0.41938120  0.40821890     0.02100
H1209       H  0.11641171  0.41504322  0.38696887     0.02600
H1210       H  0.10694333  0.43901550  0.40254018     0.06100
H1211       H  0.13754378  0.40276631  0.33471715     0.05100
H1212       H  0.15438601  0.43016625  0.34133115    -0.00700
H1213       H  0.12605885  0.42182072  0.35293074     0.00800
H1214       H  0.20817623  0.36953766  0.41015515     0.04500
H1215       H  0.21788782  0.34940774  0.39198113     0.06400
H1216       H  0.19043170  0.34230993  0.40510366     0.07300
C1217       C  0.88116433  0.46764007  0.28559577    -0.22300
C1218       C  0.86124776  0.48305191  0.28130832     0.09600
C1219       C  0.84736399  0.49381712  0.29548970     0.10000
C1220       C  0.85477681  0.49001410  0.31375447    -0.17200
C1221       C  0.87573738  0.47538974  0.31823235    -0.27700
C1222       C  0.88857511  0.46342563  0.30357454     0.18400
C1223       C  0.85740065  0.48868982  0.26168706     0.12300
C1224       C  0.82458205  0.50895987  0.29132704    -0.12000
H1225       H  0.84403159  0.49870218  0.32433892     0.12600
C1226       C  0.91061605  0.44623327  0.30566532    -0.22900
H1227       H  0.89159210  0.45919011  0.27459415     0.08300
C1228       C  0.86996602  0.50871781  0.25351649     0.04600
C1229       C  0.87292909  0.50908084  0.23455355    -0.20100
C1230       C  0.86622948  0.48848821  0.22360836    -0.12400
C1231       C  0.84969410  0.47089103  0.23150446     0.13300
C1232       C  0.84600803  0.47090623  0.25048866    -0.22800
C1233       C  0.88219269  0.52863877  0.26488833    -0.05900
H1234       H  0.88189968  0.52508402  0.22869996     0.14800
C1235       C  0.83645249  0.45119242  0.22059890    -0.16100
H1236       H  0.83557190  0.45593515  0.25670562     0.09200
H1237       H  0.92672629  0.45417848  0.29831613     0.07000
H1238       H  0.90609504  0.42787731  0.29956481     0.08200
H1239       H  0.91661854  0.44268263  0.31971493     0.07300
H1240       H  0.81098548  0.49727459  0.28384991     0.02100
H1241       H  0.82940131  0.52524101  0.28280641     0.02600
H1242       H  0.81560065  0.51588490  0.30392619     0.06100
H1243       H  0.89196015  0.54254582  0.25634844     0.05100
H1244       H  0.89606875  0.52012989  0.27417280    -0.00700
H1245       H  0.86813810  0.53864070  0.27305924     0.00800
H1246       H  0.84250597  0.43245232  0.22514069     0.04500
H1247       H  0.83969259  0.45279775  0.20579966     0.06400
H1248       H  0.81618032  0.45292182  0.22281278     0.07300
C1249       C  0.92603449  0.37956181  0.37313078    -0.22300
C1250       C  0.90596701  0.36350104  0.37055227     0.09600
C1251       C  0.88198322  0.37325627  0.36813104     0.10000
C1252       C  0.87894863  0.39906596  0.36670567    -0.17200
C1253       C  0.89946165  0.41517461  0.36723132    -0.27700
C1254       C  0.92325256  0.40532951  0.37121250     0.18400
C1255       C  0.91138322  0.33716854  0.36664966     0.12300
C1256       C  0.85992459  0.35635888  0.36594394    -0.12000
H1257       H  0.86069846  0.40661192  0.36390972     0.12600
C1258       C  0.94624433  0.42117141  0.37172184    -0.22900
H1259       H  0.94436415  0.37166682  0.37499837     0.08300
C1260       C  0.92021548  0.33024446  0.34933477     0.04600
C1261       C  0.92584392  0.30536074  0.34595686    -0.20100
C1262       C  0.92313245  0.28715588  0.35949146    -0.12400
C1263       C  0.91366339  0.29400238  0.37671921     0.13300
C1264       C  0.90800557  0.31908060  0.38012401    -0.22800
C1265       C  0.92403794  0.34915633  0.33443341    -0.05900
H1266       H  0.93353291  0.30029360  0.33286141     0.14800
C1267       C  0.90878270  0.27540710  0.39159147    -0.16100
H1268       H  0.90094192  0.32456133  0.39332451     0.09200
H1269       H  0.96324268  0.40985754  0.37379121     0.07000
H1270       H  0.94537579  0.43458070  0.38313265     0.08200
H1271       H  0.94831874  0.43101440  0.35861043     0.07300
H1272       H  0.85785191  0.34469739  0.37830549     0.02100
H1273       H  0.86252879  0.34410833  0.35393329     0.02600
H1274       H  0.84250719  0.36704502  0.36397164     0.06100
H1275       H  0.93057095  0.34036826  0.32163399     0.05100
H1276       H  0.93817023  0.36299211  0.33868059    -0.00700
H1277       H  0.90631799  0.35885858  0.33147996     0.00800
H1278       H  0.92091342  0.27946949  0.40345012     0.04500
H1279       H  0.91196582  0.25597079  0.38720007     0.06400
H1280       H  0.88912787  0.27678424  0.39590541     0.07300
C1281       C  0.99290812  0.48910344  0.35277778    -0.22300
C1282       C  0.99789549  0.49834329  0.37018314     0.09600
C1283       C  0.97872172  0.49967088  0.38305679     0.10000
C1284       C  0.95472256  0.49217872  0.37806774    -0.17200
C1285       C  0.94926732  0.48374798  0.36037389    -0.27700
C1286       C  0.96906766  0.48135051  0.34771292     0.18400
C1287       C  0.02353681  0.50643434  0.37428963     0.12300
C1288       C  0.98365616  0.50894169  0.40202181    -0.12000
H1289       H  0.94005726  0.49346586  0.38803418     0.12600
C1290       C  0.96619635  0.46921576  0.32930448    -0.22900
H1291       H  0.00797521  0.48781566  0.34308804     0.08300
C1292       C  0.04293574  0.48897835  0.37602626     0.04600
C1293       C  0.06755419  0.49730655  0.37592660    -0.20100
C1294       C  0.07310771  0.52266875  0.37449645    -0.12400
C1295       C  0.05361198  0.54028797  0.37458392     0.13300
C1296       C  0.02900787  0.53191846  0.37421557    -0.22800
C1297       C  0.03764592  0.46153379  0.37742243    -0.05900
H1298       H  0.08241676  0.48382271  0.37557403     0.14800
C1299       C  0.05821167  0.56794510  0.37454921    -0.16100
H1300       H  0.01404106  0.54532297  0.37312142     0.09200
H1301       H  0.98446158  0.46507221  0.32306389     0.07000
H1302       H  0.95650119  0.48166050  0.31966297     0.08200
H1303       H  0.95634802  0.45125143  0.33063177     0.07300
H1304       H  0.99067318  0.52828449  0.40137829     0.02100
H1305       H  0.99776053  0.49697576  0.40870655     0.02600
H1306       H  0.96663424  0.50885173  0.41048165     0.06100
H1307       H  0.05491884  0.45054780  0.37921364     0.05100
H1308       H  0.02824149  0.45485332  0.36490434    -0.00700
H1309       H  0.02553188  0.45799926  0.38932944     0.00800
H1310       H  0.05082717  0.57618559  0.36179179     0.04500
H1311       H  0.07814512  0.57267179  0.37572024     0.06400
H1312       H  0.04861189  0.57656079  0.38632340     0.07300
C1313       C  0.23045506  0.45508794  0.14546549    -0.22300
C1314       C  0.24646753  0.45056440  0.13089593     0.09600
C1315       C  0.25195025  0.47005038  0.11867201     0.10000
C1316       C  0.23992801  0.49312541  0.12067638    -0.17200
C1317       C  0.22256600  0.49706265  0.13461214    -0.27700
C1318       C  0.21875598  0.47815679  0.14762745     0.18400
C1319       C  0.25418088  0.42444129  0.12760606     0.12300
C1320       C  0.27040943  0.46650419  0.10356725    -0.12000
H1321       H  0.24337484  0.50778134  0.11089027     0.12600
C1322       C  0.20265429  0.48213832  0.16397384    -0.22900
H1323       H  0.22631159  0.44008467  0.15483511     0.08300
C1324       C  0.26889591  0.41103981  0.14015853     0.04600
C1325       C  0.27064879  0.38501214  0.13856385    -0.20100
C1326       C  0.25784460  0.37220280  0.12478647    -0.12400
C1327       C  0.24507549  0.38597287  0.11125703     0.13300
C1328       C  0.24323893  0.41185705  0.11296544    -0.22800
C1329       C  0.28245932  0.42415521  0.15531504    -0.05900
H1330       H  0.28088823  0.37455059  0.14869854     0.14800
C1331       C  0.23321003  0.37362733  0.09497685    -0.16100
H1332       H  0.23200998  0.42220872  0.10334608     0.09200
H1333       H  0.20844543  0.49922882  0.17133147     0.07000
H1334       H  0.20452096  0.46635779  0.17349861     0.08200
H1335       H  0.18293889  0.48358642  0.15982544     0.07300
H1336       H  0.26396575  0.45189122  0.09401740     0.02100
H1337       H  0.28857463  0.46093745  0.10941363     0.02600
H1338       H  0.27312994  0.48388082  0.09565647     0.06100
H1339       H  0.29381227  0.41101445  0.16348667     0.05100
H1340       H  0.26915349  0.43331153  0.16463204    -0.00700
H1341       H  0.29502133  0.43841404  0.14949029     0.00800
H1342       H  0.22623471  0.38751072  0.08501532     0.04500
H1343       H  0.21714767  0.36219651  0.09923072     0.06400
H1344       H  0.24703008  0.36176021  0.08792215     0.07300
C1345       C  0.17427119  0.57690273  0.01326365    -0.22300
C1346       C  0.15438083  0.56253798  0.01949240     0.09600
C1347       C  0.13798988  0.55172301  0.00673270     0.10000
C1348       C  0.14245404  0.55483739  0.98796133    -0.17200
C1349       C  0.16307424  0.56833514  0.98171740    -0.27700
C1350       C  0.17889224  0.57990604  0.99460444     0.18400
C1351       C  0.15218503  0.55857650  0.03948356     0.12300
C1352       C  0.11594390  0.53686556  0.01293054    -0.12000
H1353       H  0.13027506  0.54602470  0.97814385     0.12600
C1354       C  0.20047621  0.59584692  0.98883691    -0.22900
H1355       H  0.18659935  0.58539341  0.02313717     0.08300
C1356       C  0.16499129  0.53900549  0.04816542     0.04600
C1357       C  0.16682084  0.53873423  0.06724201    -0.20100
C1358       C  0.15623347  0.55760359  0.07802988    -0.12400
C1359       C  0.14200300  0.57633832  0.06930645     0.13300
C1360       C  0.14028307  0.57661767  0.05014327    -0.22800
C1361       C  0.17759782  0.51891423  0.03726183    -0.05900
H1362       H  0.17743578  0.52407996  0.07373450     0.14800
C1363       C  0.12957509  0.59675680  0.07992816    -0.16100
H1364       H  0.13052002  0.59162569  0.04337423     0.09200
H1365       H  0.20964186  0.60487835  0.00066524     0.07000
H1366       H  0.19391147  0.61074828  0.97955220     0.08200
H1367       H  0.21464608  0.58435212  0.98187962     0.07300
H1368       H  0.10367446  0.54879340  0.02132839     0.02100
H1369       H  0.12211419  0.52073659  0.02118268     0.02600
H1370       H  0.10498777  0.52970524  0.00123437     0.06100
H1371       H  0.18700806  0.50512600  0.04616072     0.05100
H1372       H  0.19174321  0.52726217  0.02819361    -0.00700
H1373       H  0.16374656  0.50883429  0.02886947     0.00800
H1374       H  0.11941863  0.60983364  0.07089499     0.04500
H1375       H  0.14365469  0.60761906  0.08758270     0.06400
H1376       H  0.11598203  0.58859295  0.08952920     0.07300
C1377       C  0.22845708  0.26293747  0.00315080    -0.22300
C1378       C  0.23783883  0.28186569  0.01436419     0.09600
C1379       C  0.24951885  0.30260169  0.00640157     0.10000
C1380       C  0.25163806  0.30392993  0.98743405    -0.17200
C1381       C  0.24256086  0.28496255  0.97603704    -0.27700
C1382       C  0.23089837  0.26401227  0.98406966     0.18400
C1383       C  0.23671623  0.27928461  0.03447278     0.12300
C1384       C  0.25985871  0.32335120  0.01795343    -0.12000
H1385       H  0.26053181  0.32002461  0.98144440     0.12600
C1386       C  0.22198876  0.24186337  0.97332052    -0.22900
H1387       H  0.21982462  0.24686059  0.00936947     0.08300
C1388       C  0.21619192  0.28771290  0.04462375     0.04600
C1389       C  0.21766610  0.28827748  0.06376140    -0.20100
C1390       C  0.23935073  0.28084209  0.07287041    -0.12400
C1391       C  0.25919175  0.27067908  0.06265280     0.13300
C1392       C  0.25766172  0.27026721  0.04360706    -0.22800
C1393       C  0.19318935  0.29697358  0.03519287    -0.05900
H1394       H  0.20239781  0.29583881  0.07155398     0.14800
C1395       C  0.28221997  0.25989563  0.07127611    -0.16100
H1396       H  0.27323803  0.26342327  0.03576695     0.09200
H1397       H  0.20160907  0.24001213  0.97482232     0.07000
H1398       H  0.23095258  0.22475495  0.97866835     0.08200
H1399       H  0.22645576  0.24284186  0.95868479     0.07300
H1400       H  0.27453204  0.31600814  0.02710046     0.02100
H1401       H  0.24485101  0.33165469  0.02628323     0.02600
H1402       H  0.26813126  0.33834170  0.00953719     0.06100
H1403       H  0.17887220  0.30302143  0.04507775     0.05100
H1404       H  0.18521516  0.28188666  0.02668061    -0.00700
H1405       H  0.19784085  0.31306099  0.02637741     0.00800
H1406       H  0.28479347  0.24047752  0.06647478     0.04500
H1407       H  0.28142391  0.25916371  0.08630425     0.06400
H1408       H  0.29861182  0.27104701  0.06723050     0.07300
C1409       C  0.25492823  0.41306723  0.94162027    -0.22300
C1410       C  0.25060527  0.42651915  0.92559989     0.09600
C1411       C  0.25345453  0.41465313  0.90857201     0.10000
C1412       C  0.25847906  0.38905883  0.90800994    -0.17200
C1413       C  0.26019142  0.37517127  0.92407615    -0.27700
C1414       C  0.25956315  0.38744587  0.94108378     0.18400
C1415       C  0.23975705  0.45177917  0.92695993     0.12300
C1416       C  0.24966138  0.42861769  0.89104264    -0.12000
H1417       H  0.25916061  0.37953892  0.89501312     0.12600
C1418       C  0.26337931  0.37402608  0.95887863    -0.22900
H1419       H  0.25336201  0.42236629  0.95466074     0.08300
C1420       C  0.21495900  0.45503065  0.93253177     0.04600
C1421       C  0.20448822  0.47882893  0.93217561    -0.20100
C1422       C  0.21810030  0.49965657  0.92642918    -0.12400
C1423       C  0.24318102  0.49642398  0.92115386     0.13300
C1424       C  0.25366398  0.47247530  0.92154807    -0.22800
C1425       C  0.19924201  0.43333641  0.93850176    -0.05900
H1426       H  0.18539957  0.48108770  0.93638527     0.14800
C1427       C  0.25892947  0.51779386  0.91471846    -0.16100
H1428       H  0.27271531  0.46975985  0.91734412     0.09200
H1429       H  0.24633273  0.37541910  0.96723815     0.07000
H1430       H  0.27897604  0.38275832  0.96641729     0.08200
H1431       H  0.26801480  0.35409949  0.95706158     0.07300
H1432       H  0.26379980  0.44348931  0.88978434     0.02100
H1433       H  0.23095104  0.43709601  0.89091933     0.02600
H1434       H  0.25127494  0.41624184  0.87899961     0.06100
H1435       H  0.17987509  0.43903224  0.94142429     0.05100
H1436       H  0.20702166  0.42503254  0.95108944    -0.00700
H1437       H  0.19875224  0.41900543  0.92766078     0.00800
H1438       H  0.27780184  0.51159850  0.91076924     0.04500
H1439       H  0.26102507  0.53171405  0.92577373     0.06400
H1440       H  0.25023977  0.52657831  0.90261158     0.07300
C1441       C  0.05625351  0.27173726  0.85192698    -0.22300
C1442       C  0.06458773  0.26236564  0.86861167     0.09600
C1443       C  0.04768954  0.25106420  0.88060641     0.10000
C1444       C  0.02278262  0.24853277  0.87523515    -0.17200
C1445       C  0.01446234  0.25755054  0.85833058    -0.27700
C1446       C  0.03137783  0.26988727  0.84671122     0.18400
C1447       C  0.09089252  0.26666203  0.87327556     0.12300
C1448       C  0.05579491  0.24236096  0.89914796    -0.12000
H1449       H  0.00969578  0.23964943  0.88431228     0.12600
C1450       C  0.02331068  0.28261874  0.82939128    -0.22900
H1451       H  0.06933488  0.28109983  0.84309189     0.08300
C1452       C  0.10946721  0.24971242  0.86806865     0.04600
C1453       C  0.13425639  0.25758314  0.86782066    -0.20100
C1454       C  0.14076136  0.28241423  0.87166513    -0.12400
C1455       C  0.12208960  0.29885839  0.87808472     0.13300
C1456       C  0.09751919  0.29048245  0.87913301    -0.22800
C1457       C  0.10296230  0.22396363  0.86151508    -0.05900
H1458       H  0.14842996  0.24480662  0.86315676     0.14800
C1459       C  0.12684236  0.32592297  0.88197294    -0.16100
H1460       H  0.08293055  0.30334819  0.88291998     0.09200
H1461       H  0.01743857  0.26886035  0.81904798     0.07000
H1462       H  0.03858118  0.29362345  0.82327816     0.08200
H1463       H  0.00791202  0.29561307  0.83232311     0.07300
H1464       H  0.06329505  0.25832022  0.90701613     0.02100
H1465       H  0.07038435  0.22795444  0.89785015     0.02600
H1466       H  0.04014139  0.23425502  0.90692503     0.06100
H1467       H  0.11971621  0.21323329  0.85761166     0.05100
H1468       H  0.09064835  0.22517214  0.84942188    -0.00700
H1469       H  0.09332599  0.21357004  0.87242575     0.00800
H1470       H  0.13422754  0.33490330  0.86960431     0.04500
H1471       H  0.13965350  0.32811313  0.89363818     0.06400
H1472       H  0.10959384  0.33600509  0.88563752     0.07300
C1473       C  0.95022857  0.40668207  0.86463630    -0.22300
C1474       C  0.93385085  0.38790044  0.85906003     0.09600
C1475       C  0.91107686  0.39437422  0.85092778     0.10000
C1476       C  0.90493174  0.41953127  0.84890145    -0.17200
C1477       C  0.92112571  0.43849677  0.85456035    -0.27700
C1478       C  0.94427047  0.43198140  0.86232374     0.18400
C1479       C  0.94178533  0.36155342  0.85992864     0.12300
C1480       C  0.89343666  0.37470870  0.84408188    -0.12000
H1481       H  0.88725502  0.42445282  0.84284681     0.12600
C1482       C  0.96334774  0.45135789  0.86714415    -0.22900
H1483       H  0.96802538  0.40146096  0.87034971     0.08300
C1484       C  0.95655056  0.35139701  0.84601698     0.04600
C1485       C  0.96099255  0.32577495  0.84576462    -0.20100
C1486       C  0.95067691  0.30983286  0.85886371    -0.12400
C1487       C  0.93622773  0.32007162  0.87304495     0.13300
C1488       C  0.93220937  0.34593682  0.87351311    -0.22800
C1489       C  0.96649576  0.36740645  0.83086358    -0.05900
H1490       H  0.97143354  0.31790179  0.83460545     0.14800
C1491       C  0.92344536  0.30431730  0.88709849    -0.16100
H1492       H  0.92049084  0.35382129  0.88399922     0.09200
H1493       H  0.96699714  0.46343004  0.85519634     0.07000
H1494       H  0.98119167  0.44276299  0.87133010     0.08200
H1495       H  0.95686364  0.46281070  0.87868549     0.07300
H1496       H  0.88756720  0.36260880  0.85551722     0.02100
H1497       H  0.90267908  0.36316660  0.83356898     0.02600
H1498       H  0.87654275  0.38300766  0.83790889     0.06100
H1499       H  0.97731940  0.35636883  0.82087803     0.05100
H1500       H  0.97885098  0.38197095  0.83656070    -0.00700
H1501       H  0.95091380  0.37641909  0.82348736     0.00800
H1502       H  0.92993077  0.30970933  0.90089353     0.04500
H1503       H  0.92691250  0.28420358  0.88529098     0.06400
H1504       H  0.90313047  0.30738013  0.88622979     0.07300
C1505       C  0.04024341  0.50572659  0.86490301    -0.22300
C1506       C  0.02632791  0.52430560  0.87351023     0.09600
C1507       C  0.03860405  0.54445090  0.88193652     0.10000
C1508       C  0.06452573  0.54628544  0.88053078    -0.17200
C1509       C  0.07807684  0.52891211  0.87036541    -0.27700
C1510       C  0.06584082  0.50814684  0.86266997     0.18400
C1511       C  0.99915236  0.52410840  0.87056297     0.12300
C1512       C  0.02429952  0.56464841  0.89145032    -0.12000
H1513       H  0.07405627  0.56216535  0.88636108     0.12600
C1514       C  0.07881607  0.48885134  0.85123145    -0.22900
H1515       H  0.03072766  0.49020877  0.85853248     0.08300
C1516       C  0.98949187  0.52811212  0.85297142     0.04600
C1517       C  0.96429460  0.52428839  0.84978090    -0.20100
C1518       C  0.94793880  0.51744100  0.86380784    -0.12400
C1519       C  0.95724042  0.51650848  0.88188024     0.13300
C1520       C  0.98290987  0.51891662  0.88493388    -0.22800
C1521       C  0.00579273  0.53605716  0.83734367    -0.05900
H1522       H  0.95784775  0.52538086  0.83589280     0.14800
C1523       C  0.94074070  0.51389673  0.89823585    -0.16100
H1524       H  0.99026523  0.51672432  0.89858044     0.09200
H1525       H  0.07081637  0.48890939  0.83729233     0.07000
H1526       H  0.07605501  0.47016501  0.85731759     0.08200
H1527       H  0.09899236  0.49202178  0.85004356     0.07300
H1528       H  0.01386025  0.55663875  0.90303431     0.02100
H1529       H  0.01110752  0.57345825  0.88178873     0.02600
H1530       H  0.03674641  0.57935580  0.89687211     0.06100
H1531       H  0.99484674  0.53984642  0.82482795     0.05100
H1532       H  0.01935735  0.52126929  0.83400642    -0.00700
H1533       H  0.01583237  0.55337278  0.84103058     0.00800
H1534       H  0.94413696  0.49571159  0.90495059     0.04500
H1535       H  0.92086720  0.51568678  0.89468311     0.06400
H1536       H  0.94490990  0.52901338  0.90807987     0.07300
C1537       C  0.17869183  0.45153635  0.87465736    -0.22300
C1538       C  0.15953940  0.43439197  0.87720797     0.09600
C1539       C  0.13534515  0.44292624  0.88096597     0.10000
C1540       C  0.13032323  0.46852049  0.87993962    -0.17200
C1541       C  0.14909777  0.48546026  0.87550086    -0.27700
C1542       C  0.17388679  0.47706904  0.87429039     0.18400
C1543       C  0.16503727  0.40778609  0.87429742     0.12300
C1544       C  0.11488435  0.42504377  0.88574606    -0.12000
H1545       H  0.11148429  0.47512116  0.88153528     0.12600
C1546       C  0.19554779  0.49455812  0.87234007    -0.22900
H1547       H  0.19732057  0.44491145  0.87217154     0.08300
C1548       C  0.15908082  0.39614162  0.85767780     0.04600
C1549       C  0.16532307  0.37114998  0.85517212    -0.20100
C1550       C  0.17866223  0.35772633  0.86841443    -0.12400
C1551       C  0.18555975  0.36985392  0.88478753     0.13300
C1552       C  0.17837383  0.39469666  0.88754153    -0.22800
C1553       C  0.14739418  0.41039287  0.84218005    -0.05900
H1554       H  0.16008892  0.36211029  0.84253714     0.14800
C1555       C  0.20166266  0.35760180  0.89892228    -0.16100
H1556       H  0.18364551  0.40424816  0.89995343     0.09200
H1557       H  0.20476198  0.49139120  0.85905349     0.07000
H1558       H  0.20909300  0.49098887  0.88344525     0.08200
H1559       H  0.19003177  0.51438580  0.87331380     0.07300
H1560       H  0.12004638  0.41465947  0.89824350     0.02100
H1561       H  0.11174803  0.41155389  0.87457101     0.02600
H1562       H  0.09714553  0.43489801  0.88832937     0.06100
H1563       H  0.14472695  0.39851328  0.82995881     0.05100
H1564       H  0.15956226  0.42616781  0.83831458    -0.00700
H1565       H  0.12903135  0.41777314  0.84616520     0.00800
H1566       H  0.21858019  0.34991395  0.89246733     0.04500
H1567       H  0.19135946  0.34277811  0.90604364     0.06400
H1568       H  0.20760345  0.37105267  0.90954146     0.07300
C1569       C  0.87203653  0.46909439  0.75471554    -0.22300
C1570       C  0.86347013  0.49276331  0.75910608     0.09600
C1571       C  0.85682175  0.50921672  0.74502134     0.10000
C1572       C  0.85931208  0.50160402  0.72671346    -0.17200
C1573       C  0.86960288  0.47823134  0.72203426    -0.27700
C1574       C  0.87618790  0.46184552  0.73668754     0.18400
C1575       C  0.86760859  0.50088946  0.77820183     0.12300
C1576       C  0.84844805  0.53525153  0.74935671    -0.12000
H1577       H  0.85511975  0.51500828  0.71622736     0.12600
C1578       C  0.88925093  0.43718445  0.73416321    -0.22900
H1579       H  0.87751471  0.45683095  0.76574390     0.08300
C1580       C  0.85044410  0.49637096  0.79218784     0.04600
C1581       C  0.85805082  0.49842991  0.81050625    -0.20100
C1582       C  0.88292658  0.50371512  0.81536458    -0.12400
C1583       C  0.90007626  0.50804563  0.80083551     0.13300
C1584       C  0.89179393  0.50757759  0.78274955    -0.22800
C1585       C  0.82453845  0.48788651  0.78775039    -0.05900
H1586       H  0.84477386  0.49356267  0.82085442     0.14800
C1587       C  0.92768919  0.51124437  0.80355629    -0.16100
H1588       H  0.90495608  0.51031313  0.77179846     0.09200
H1589       H  0.87596614  0.42298365  0.72931518     0.07000
H1590       H  0.89679058  0.42987356  0.74718527     0.08200
H1591       H  0.90529838  0.43889113  0.72488836     0.07300
H1592       H  0.86326026  0.54522042  0.75692470     0.02100
H1593       H  0.83149253  0.53459434  0.75784555     0.02600
H1594       H  0.84416829  0.54600053  0.73683886     0.06100
H1595       H  0.81338401  0.48482299  0.80022492     0.05100
H1596       H  0.82521410  0.47011310  0.78006442    -0.00700
H1597       H  0.81505354  0.50216405  0.77935126     0.00800
H1598       H  0.93800306  0.50976734  0.79054085     0.04500
H1599       H  0.93532769  0.49658633  0.81256455     0.06400
H1600       H  0.93178994  0.53004747  0.80887987     0.07300
C1601       C  0.15993964  0.56351080  0.75621012    -0.22300
C1602       C  0.14054187  0.56316957  0.76886069     0.09600
C1603       C  0.11604971  0.56044453  0.76240617     0.10000
C1604       C  0.11186823  0.55601492  0.74384902    -0.17200
C1605       C  0.13148067  0.55241366  0.73141400    -0.27700
C1606       C  0.15592296  0.55800917  0.73769775     0.18400
C1607       C  0.14620703  0.56199313  0.78876577     0.12300
C1608       C  0.09414097  0.56085695  0.77513794    -0.12000
H1609       H  0.09284166  0.55506758  0.73949061     0.12600
C1610       C  0.17860838  0.55772699  0.72572674    -0.22900
H1611       H  0.17866659  0.56684817  0.76099784     0.08300
C1612       C  0.15870464  0.54130591  0.79619984     0.04600
C1613       C  0.15929990  0.53806951  0.81509916    -0.20100
C1614       C  0.14562034  0.55341306  0.82704620    -0.12400
C1615       C  0.13563796  0.57583485  0.81964046     0.13300
C1616       C  0.13645324  0.57989878  0.80067023    -0.22800
C1617       C  0.17009088  0.52147314  0.78427899    -0.05900
H1618       H  0.16999544  0.52261565  0.82003033     0.14800
C1619       C  0.12367216  0.59553175  0.83135962    -0.16100
H1620       H  0.12810826  0.59649796  0.79497079     0.09200
H1621       H  0.19160017  0.54310846  0.73055058     0.07000
H1622       H  0.18803716  0.57604504  0.72658577     0.08200
H1623       H  0.17469799  0.55427143  0.71121550     0.07300
H1624       H  0.09229962  0.57948752  0.78146157     0.02100
H1625       H  0.09652962  0.54656646  0.78590083     0.02600
H1626       H  0.07646476  0.55684924  0.76793737     0.06100
H1627       H  0.17747602  0.50565840  0.79236152     0.05100
H1628       H  0.18576130  0.52928957  0.77642851    -0.00700
H1629       H  0.15591502  0.51391040  0.77479644     0.00800
H1630       H  0.13715457  0.60256387  0.84152391     0.04500
H1631       H  0.10708833  0.58827567  0.83839318     0.06400
H1632       H  0.11748538  0.61173985  0.82315397     0.07300
C1633       C  0.03246505  0.51493011  0.66993991    -0.22300
C1634       C  0.02241147  0.49641577  0.68117799     0.09600
C1635       C  0.03757406  0.48497337  0.69444223     0.10000
C1636       C  0.06222387  0.49277087  0.69649281    -0.17200
C1637       C  0.07192800  0.51215589  0.68591561    -0.27700
C1638       C  0.05698531  0.52320130  0.67237501     0.18400
C1639       C  0.99537947  0.49124858  0.68040585     0.12300
C1640       C  0.02737426  0.46557525  0.70717978    -0.12000
H1641       H  0.07368059  0.48454827  0.70701895     0.12600
C1642       C  0.06626980  0.54476088  0.66134583    -0.22900
H1643       H  0.02068954  0.52376672  0.65987831     0.08300
C1644       C  0.97816998  0.50836389  0.68760964     0.04600
C1645       C  0.95300085  0.50203150  0.68813947    -0.20100
C1646       C  0.94463073  0.47844084  0.68260028    -0.12400
C1647       C  0.96195190  0.46111475  0.67564465     0.13300
C1648       C  0.98702745  0.46802683  0.67418661    -0.22800
C1649       C  0.98651143  0.53266698  0.69582477    -0.05900
H1650       H  0.93982836  0.51527461  0.69361653     0.14800
C1651       C  0.95464916  0.43480648  0.67104591    -0.16100
H1652       H  0.00042853  0.45483461  0.66896359     0.09200
H1653       H  0.07227226  0.56010330  0.67046778     0.07000
H1654       H  0.05153753  0.55207325  0.65233713     0.08200
H1655       H  0.08203409  0.53873233  0.65277005     0.07300
H1656       H  0.02120607  0.44904411  0.69935118     0.02100
H1657       H  0.01142793  0.47335773  0.71482350     0.02600
H1658       H  0.04148469  0.45931662  0.71720458     0.06100
H1659       H  0.97069427  0.54363631  0.70119611     0.05100
H1660       H  0.99604883  0.54407820  0.68546649    -0.00700
H1661       H  0.99951728  0.52899767  0.70724502     0.00800
H1662       H  0.94207722  0.43453030  0.65914055     0.04500
H1663       H  0.94542761  0.42605854  0.68291266     0.06400
H1664       H  0.97101202  0.42325148  0.66752382     0.07300
C1665       C  0.23361182  0.29714252  0.75506363    -0.22300
C1666       C  0.21783318  0.28178024  0.76515795     0.09600
C1667       C  0.20183038  0.26547126  0.75575460     0.10000
C1668       C  0.19935448  0.26749335  0.73676208    -0.17200
C1669       C  0.21199473  0.28600522  0.72679047    -0.27700
C1670       C  0.23163000  0.29869638  0.73595915     0.18400
C1671       C  0.21473863  0.28612311  0.78508767     0.12300
C1672       C  0.18675629  0.24638770  0.76588933    -0.12000
H1673       H  0.18683779  0.25487210  0.72997924     0.12600
C1674       C  0.25040099  0.31464306  0.72628457    -0.22900
H1675       H  0.24675264  0.30893268  0.76216884     0.08300
C1676       C  0.23178156  0.27820886  0.79846827     0.04600
C1677       C  0.22639487  0.28211552  0.81709290    -0.20100
C1678       C  0.20427167  0.29394055  0.82275340    -0.12400
C1679       C  0.18739207  0.30203506  0.80886247     0.13300
C1680       C  0.19314738  0.29823569  0.79052753    -0.22800
C1681       C  0.25544674  0.26540215  0.79308834    -0.05900
H1682       H  0.23962553  0.27566183  0.82703758     0.14800
C1683       C  0.16276269  0.31479051  0.81218277    -0.16100
H1684       H  0.18019811  0.30448602  0.78016433     0.09200
H1685       H  0.26932757  0.30790586  0.72962309     0.07000
H1686       H  0.24865014  0.33423852  0.73088166     0.08200
H1687       H  0.24853849  0.31405201  0.71130682     0.07300
H1688       H  0.17375189  0.25563855  0.77539610     0.02100
H1689       H  0.19934469  0.23403194  0.77373039     0.02600
H1690       H  0.17563215  0.23464283  0.75649683     0.06100
H1691       H  0.26664328  0.25998990  0.80515485     0.05100
H1692       H  0.26680477  0.27805339  0.78458595    -0.00700
H1693       H  0.25111177  0.24832573  0.78520015     0.00800
H1694       H  0.16296858  0.33344763  0.80570685     0.04500
H1695       H  0.15762634  0.31754087  0.82652036     0.06400
H1696       H  0.14770783  0.30362723  0.80586670     0.07300
C1697       C  0.15945596  0.39407558  0.69546962    -0.22300
C1698       C  0.17089890  0.40794839  0.68175493     0.09600
C1699       C  0.18886753  0.39659339  0.67055976     0.10000
C1700       C  0.19520782  0.37153527  0.67356904    -0.17200
C1701       C  0.18416721  0.35786905  0.68764069    -0.27700
C1702       C  0.16565534  0.36914563  0.69848309     0.18400
C1703       C  0.16430909  0.43462906  0.68032391     0.12300
C1704       C  0.20107148  0.41079892  0.65539290    -0.12000
H1705       H  0.20900794  0.36264431  0.66507532     0.12600
C1706       C  0.15170930  0.35489120  0.71285058    -0.22900
H1707       H  0.14564820  0.40295875  0.70397462     0.08300
C1708       C  0.14053659  0.44227923  0.67456694     0.04600
C1709       C  0.13328446  0.46708093  0.67720098    -0.20100
C1710       C  0.14938206  0.48451025  0.68522058    -0.12400
C1711       C  0.17405478  0.47728133  0.68925685     0.13300
C1712       C  0.18096929  0.45229526  0.68717887    -0.22800
C1713       C  0.12267351  0.42418425  0.66596729    -0.05900
H1714       H  0.11447136  0.47245738  0.67386282     0.14800
C1715       C  0.19363732  0.49531764  0.69557589    -0.16100
H1716       H  0.19934860  0.44642395  0.69136800     0.09200
H1717       H  0.13675956  0.36627006  0.71904232     0.07000
H1718       H  0.16432309  0.34913964  0.72399240     0.08200
H1719       H  0.14298372  0.33825558  0.70666087     0.07300
H1720       H  0.21148791  0.42686419  0.66100693     0.02100
H1721       H  0.18674190  0.41766721  0.64575959     0.02600
H1722       H  0.21428658  0.39896993  0.64770670     0.06100
H1723       H  0.10513351  0.43342581  0.66182047     0.05100
H1724       H  0.11797129  0.40914958  0.67568579    -0.00700
H1725       H  0.13121684  0.41589287  0.65364744     0.00800
H1726       H  0.19922318  0.49083071  0.70974952     0.04500
H1727       H  0.18744853  0.51492891  0.69491085     0.06400
H1728       H  0.21011907  0.49376116  0.68663522     0.07300
C1729       C  0.92602562  0.22055620  0.74596971    -0.22300
C1730       C  0.94611046  0.21856766  0.75801654     0.09600
C1731       C  0.97018069  0.21669931  0.75080818     0.10000
C1732       C  0.97371749  0.21911306  0.73198404    -0.17200
C1733       C  0.95409385  0.22534277  0.71998639    -0.27700
C1734       C  0.92955417  0.22419296  0.72716892     0.18400
C1735       C  0.94232320  0.22384970  0.77776303     0.12300
C1736       C  0.99246534  0.21370763  0.76306602    -0.12000
H1737       H  0.99235223  0.21669476  0.72713072     0.12600
C1738       C  0.90640073  0.22772733  0.71589571    -0.22900
H1739       H  0.90741598  0.22126238  0.75148632     0.08300
C1740       C  0.93696328  0.24825019  0.78339588     0.04600
C1741       C  0.93783192  0.25427793  0.80189926    -0.20100
C1742       C  0.94431350  0.23682707  0.81558386    -0.12400
C1743       C  0.94894334  0.21188796  0.80973524     0.13300
C1744       C  0.94756826  0.20579167  0.79101220    -0.22800
C1745       C  0.93212496  0.26874802  0.76973869    -0.05900
H1746       H  0.93532962  0.27356971  0.80486682     0.14800
C1747       C  0.95641078  0.19156930  0.82280900    -0.16100
H1748       H  0.95173234  0.18703826  0.78656661     0.09200
H1749       H  0.89606821  0.24419716  0.72094681     0.07000
H1750       H  0.89442302  0.21104760  0.71726821     0.08200
H1751       H  0.90978932  0.23047584  0.70124877     0.07300
H1752       H  0.99118087  0.19589729  0.77061310     0.02100
H1753       H  0.99338808  0.22938558  0.77288914     0.02600
H1754       H  0.01007319  0.21351321  0.75527907     0.06100
H1755       H  0.92959933  0.28714531  0.77634989     0.05100
H1756       H  0.91496733  0.26473406  0.76193819    -0.00700
H1757       H  0.94800726  0.27032702  0.76023200     0.00800
H1758       H  0.94101047  0.18742546  0.83224001     0.04500
H1759       H  0.97318946  0.19691258  0.83060037     0.06400
H1760       H  0.96077596  0.17395380  0.81559347     0.07300
C1761       C  0.94767831  0.33931628  0.67506087    -0.22300
C1762       C  0.92415255  0.34188502  0.66713955     0.09600
C1763       C  0.91159343  0.32055739  0.66076657     0.10000
C1764       C  0.92201640  0.29693746  0.66386778    -0.17200
C1765       C  0.94423427  0.29435951  0.67365299    -0.27700
C1766       C  0.95754302  0.31583458  0.67895099     0.18400
C1767       C  0.91131334  0.36605455  0.66955070     0.12300
C1768       C  0.88666572  0.32264821  0.65165925    -0.12000
H1769       H  0.91208455  0.28038898  0.65964144     0.12600
C1770       C  0.98143573  0.31483489  0.68960440    -0.22900
H1771       H  0.95732905  0.35577365  0.67985389     0.08300
C1772       C  0.90442555  0.37370266  0.68716508     0.04600
C1773       C  0.89535645  0.39769023  0.68976762    -0.20100
C1774       C  0.89158373  0.41421094  0.67517791    -0.12400
C1775       C  0.89569081  0.40541418  0.65724627     0.13300
C1776       C  0.90639081  0.38172269  0.65468151    -0.22800
C1777       C  0.90672294  0.35663474  0.70341336    -0.05900
H1778       H  0.89231669  0.40372956  0.70355942     0.14800
C1779       C  0.88817185  0.41995199  0.64062780    -0.16100
H1780       H  0.91077036  0.37542742  0.64105706     0.09200
H1781       H  0.98774951  0.29565871  0.69247403     0.07000
H1782       H  0.97892362  0.32443678  0.70285163     0.08200
H1783       H  0.99626202  0.32445477  0.68188407     0.07300
H1784       H  0.88832449  0.33395953  0.63909527     0.02100
H1785       H  0.87325931  0.33165929  0.66100954     0.02600
H1786       H  0.87920484  0.30412365  0.64780801     0.06100
H1787       H  0.89893733  0.36517488  0.71591897     0.05100
H1788       H  0.92643846  0.35228040  0.70622505    -0.00700
H1789       H  0.89642445  0.33911999  0.70076005     0.00800
H1790       H  0.90488527  0.42539285  0.63281664     0.04500
H1791       H  0.87727817  0.43678602  0.64403602     0.06400
H1792       H  0.87616201  0.40819524  0.63184980     0.07300
C1793       C  0.06034724  0.24173422  0.67303184    -0.22300
C1794       C  0.06607086  0.26631157  0.66845313     0.09600
C1795       C  0.04706693  0.28261964  0.66286326     0.10000
C1796       C  0.02228912  0.27496810  0.66437807    -0.17200
C1797       C  0.01646063  0.25139689  0.67131984    -0.27700
C1798       C  0.03569844  0.23388421  0.67414449     0.18400
C1799       C  0.09129436  0.27545430  0.67243462     0.12300
C1800       C  0.05298466  0.30837336  0.65616353    -0.12000
H1801       H  0.00752682  0.28794152  0.66128266     0.12600
C1802       C  0.03082538  0.20696068  0.67857103    -0.22900
H1803       H  0.07514026  0.22896045  0.67659223     0.08300
C1804       C  0.09759590  0.28335260  0.69012150     0.04600
C1805       C  0.12201322  0.29041975  0.69391755    -0.20100
C1806       C  0.14055483  0.28979818  0.68049439    -0.12400
C1807       C  0.13365922  0.28308110  0.66245082     0.13300
C1808       C  0.10917522  0.27562862  0.65876319    -0.22800
C1809       C  0.07854930  0.28400700  0.70508999    -0.05900
H1810       H  0.12668137  0.29612285  0.70763981     0.14800
C1811       C  0.15179657  0.28247589  0.64706531    -0.16100
H1812       H  0.10394205  0.26970237  0.64518433     0.09200
H1813       H  0.03773835  0.20273538  0.69247141     0.07000
H1814       H  0.04070096  0.19496746  0.66864542     0.08200
H1815       H  0.01089853  0.20206947  0.67771729     0.07300
H1816       H  0.06503754  0.30709267  0.64397696     0.02100
H1817       H  0.06277087  0.31902055  0.66694659     0.02600
H1818       H  0.03595671  0.31875337  0.65233582     0.06100
H1819       H  0.08652489  0.29087534  0.71810022     0.05100
H1820       H  0.07113684  0.26503226  0.70746913    -0.00700
H1821       H  0.06309497  0.29656634  0.70117977     0.00800
H1822       H  0.14379894  0.27339928  0.63481424     0.04500
H1823       H  0.16833845  0.27179654  0.65127610     0.06400
H1824       H  0.15680131  0.30158894  0.64290775     0.07300
C1825       C  0.01525715  0.61655849  0.41429025    -0.22300
C1826       C  0.00298452  0.59635370  0.42219996     0.09600
C1827       C  0.01646121  0.57877217  0.43244247     0.10000
C1828       C  0.04208120  0.58149553  0.43423432    -0.17200
C1829       C  0.05475067  0.60136922  0.42604838    -0.27700
C1830       C  0.04106135  0.61940548  0.41613821     0.18400
C1831       C  0.97649097  0.59209894  0.41830567     0.12300
C1832       C  0.00391821  0.55673763  0.44118267    -0.12000
H1833       H  0.05231818  0.56765765  0.44188521     0.12600
C1834       C  0.05339523  0.64115479  0.40697454    -0.22900
H1835       H  0.00465971  0.62978254  0.40632017     0.08300
C1836       C  0.95805042  0.59737635  0.43129358     0.04600
C1837       C  0.93467964  0.58612549  0.42950204    -0.20100
C1838       C  0.92952782  0.57032645  0.41475631    -0.12400
C1839       C  0.94675482  0.56845729  0.40037728     0.13300
C1840       C  0.97033435  0.57891657  0.40251510    -0.22800
C1841       C  0.96337156  0.61428286  0.44716840    -0.05900
H1842       H  0.92100231  0.58847641  0.44014060     0.14800
C1843       C  0.94011813  0.55606035  0.38264445    -0.16100
H1844       H  0.98438361  0.57585335  0.39222937     0.09200
H1845       H  0.03979077  0.65309255  0.39971327     0.07000
H1846       H  0.06701346  0.63436348  0.39682302     0.08200
H1847       H  0.06287950  0.65288271  0.41729370     0.07300
H1848       H  0.99422047  0.54551912  0.43072579     0.02100
H1849       H  0.99021486  0.56319436  0.45135704     0.02600
H1850       H  0.01737700  0.54442992  0.44825225     0.06100
H1851       H  0.94684639  0.61664428  0.45597200     0.05100
H1852       H  0.96889992  0.63289306  0.44203852    -0.00700
H1853       H  0.97863999  0.60662601  0.45560355     0.00800
H1854       H  0.92407849  0.56580352  0.37640309     0.04500
H1855       H  0.93506119  0.53645393  0.38485238     0.06400
H1856       H  0.95574505  0.55651623  0.37284428     0.07300
C1857       C  0.86749619  0.47555259  0.54080734    -0.22300
C1858       C  0.86007260  0.49520836  0.52945840     0.09600
C1859       C  0.85209568  0.51768309  0.53740642     0.10000
C1860       C  0.85259453  0.52033937  0.55638883    -0.17200
C1861       C  0.86103730  0.50120175  0.56791622    -0.27700
C1862       C  0.86820726  0.47818946  0.55993484     0.18400
C1863       C  0.86295483  0.49321714  0.50932062     0.12300
C1864       C  0.84384626  0.53927833  0.52579334    -0.12000
H1865       H  0.84678880  0.53789207  0.56228342     0.12600
C1866       C  0.87795933  0.45641834  0.57069389    -0.22900
H1867       H  0.87372199  0.45832286  0.53464793     0.08300
C1868       C  0.88581281  0.49875807  0.50096152     0.04600
C1869       C  0.88697619  0.50126686  0.48194785    -0.20100
C1870       C  0.86581355  0.49852437  0.47095751    -0.12400
C1871       C  0.84299414  0.49209451  0.47930437     0.13300
C1872       C  0.84199020  0.48927464  0.49835452    -0.22800
C1873       C  0.90875986  0.50323132  0.51221136    -0.05900
H1874       H  0.90439045  0.50637295  0.47565137     0.14800
C1875       C  0.81892666  0.48987922  0.46895955    -0.16100
H1876       H  0.82436964  0.48538096  0.50480860     0.09200
H1877       H  0.89679650  0.45155262  0.56579560     0.07000
H1878       H  0.86560758  0.44013932  0.56861741     0.08200
H1879       H  0.87946301  0.45993034  0.58543684     0.07300
H1880       H  0.82752481  0.53378834  0.51749585     0.02100
H1881       H  0.85912383  0.54501472  0.51662268     0.02600
H1882       H  0.83852332  0.55563175  0.53415739     0.06100
H1883       H  0.92504174  0.50764158  0.50358863     0.05100
H1884       H  0.91317868  0.48634090  0.52027032    -0.00700
H1885       H  0.90567653  0.51911196  0.52160248     0.00800
H1886       H  0.81127604  0.47087691  0.47075472     0.04500
H1887       H  0.82070374  0.49342594  0.45422526     0.06400
H1888       H  0.80540829  0.50354968  0.47440553     0.07300
C1889       C  0.11918623  0.57687130  0.54759511    -0.22300
C1890       C  0.14239955  0.57186476  0.53997902     0.09600
C1891       C  0.16293999  0.56759459  0.55149976     0.10000
C1892       C  0.16004311  0.56973636  0.57046591    -0.17200
C1893       C  0.13714258  0.57648372  0.57802003    -0.27700
C1894       C  0.11625702  0.57926292  0.56646436     0.18400
C1895       C  0.14502438  0.57405858  0.51996351     0.12300
C1896       C  0.18789902  0.56115867  0.54371591    -0.12000
H1897       H  0.17592693  0.56726815  0.57934113     0.12600
C1898       C  0.09075932  0.58458659  0.57391033    -0.22900
H1899       H  0.10346708  0.57988365  0.53864505     0.08300
C1900       C  0.13698951  0.55523361  0.50794508     0.04600
C1901       C  0.13715359  0.55974344  0.48909914    -0.20100
C1902       C  0.14494752  0.58274078  0.48207258    -0.12400
C1903       C  0.15443195  0.60099564  0.49413598     0.13300
C1904       C  0.15397107  0.59651708  0.51291924    -0.22800
C1905       C  0.12790180  0.53062459  0.51503835    -0.05900
H1906       H  0.13010003  0.54566857  0.47987463     0.14800
C1907       C  0.16568488  0.62514600  0.48778917    -0.16100
H1908       H  0.16041288  0.61082680  0.52220934     0.09200
H1909       H  0.07642346  0.58428376  0.56304002     0.07000
H1910       H  0.09024082  0.60328901  0.58026932     0.08200
H1911       H  0.08573797  0.57028509  0.58415484     0.07300
H1912       H  0.19450437  0.57648837  0.53486548     0.02100
H1913       H  0.18642365  0.54383941  0.53554673     0.02600
H1914       H  0.20192701  0.55812762  0.55457515     0.06100
H1915       H  0.12254737  0.51786067  0.50380765     0.05100
H1916       H  0.11144898  0.53351113  0.52381493    -0.00700
H1917       H  0.14278373  0.52155822  0.52311736     0.00800
H1918       H  0.15415286  0.64097115  0.49251988     0.04500
H1919       H  0.16771913  0.62628029  0.47283064     0.06400
H1920       H  0.18457857  0.62707906  0.49365494     0.07300
C1921       C  0.96118901  0.58965870  0.61182239    -0.22300
C1922       C  0.97389131  0.59045096  0.62844642     0.09600
C1923       C  0.96180158  0.58298763  0.64454113     0.10000
C1924       C  0.93810520  0.57237500  0.64334041    -0.17200
C1925       C  0.92671987  0.56886662  0.62637013    -0.27700
C1926       C  0.93780957  0.57860208  0.61052336     0.18400
C1927       C  0.00107689  0.59332756  0.62798889     0.12300
C1928       C  0.97456900  0.58474017  0.66272760    -0.12000
H1929       H  0.92926372  0.56518358  0.65546717     0.12600
C1930       C  0.92590057  0.57689903  0.59198922    -0.22900
H1931       H  0.97047798  0.59574272  0.59953536     0.08300
C1932       C  0.01587168  0.57367727  0.62140964     0.04600
C1933       C  0.04156423  0.57611588  0.62169105    -0.20100
C1934       C  0.05311573  0.59708039  0.62932168    -0.12400
C1935       C  0.03827502  0.61694833  0.63581430     0.13300
C1936       C  0.01230562  0.61485709  0.63491372    -0.22800
C1937       C  0.00466750  0.54955462  0.61480645    -0.05900
H1938       H  0.05272634  0.56091238  0.61654091     0.14800
C1939       C  0.04945420  0.64003194  0.64404610    -0.16100
H1940       H  0.00069407  0.62977062  0.63998603     0.09200
H1941       H  0.93776170  0.56557444  0.58285371     0.07000
H1942       H  0.92397934  0.59585994  0.58617228     0.08200
H1943       H  0.90717592  0.56845835  0.59231961     0.07300
H1944       H  0.97878192  0.60449563  0.66584454     0.02100
H1945       H  0.99213586  0.57402238  0.66240028     0.02600
H1946       H  0.96283355  0.57728255  0.67384704     0.06100
H1947       H  0.01908457  0.53573119  0.61107440     0.05100
H1948       H  0.99308415  0.55288868  0.60256377    -0.00700
H1949       H  0.99310366  0.54126932  0.62570991     0.00800
H1950       H  0.03500312  0.65335686  0.64858745     0.04500
H1951       H  0.06113641  0.64963285  0.63381977     0.06400
H1952       H  0.06083978  0.63499983  0.65609952     0.07300
C1953       C  0.88317272  0.32306419  0.12549650    -0.22300
C1954       C  0.85745839  0.32452718  0.12351249     0.09600
C1955       C  0.84352506  0.30275710  0.12064851     0.10000
C1956       C  0.85583451  0.27975939  0.11993811    -0.17200
C1957       C  0.88176998  0.27834382  0.12157454    -0.27700
C1958       C  0.89560116  0.30031625  0.12468180     0.18400
C1959       C  0.84634630  0.34957294  0.12336140     0.12300
C1960       C  0.81589239  0.30392912  0.11803044    -0.12000
H1961       H  0.84524912  0.26292303  0.11761488     0.12600
C1962       C  0.92332873  0.30008776  0.12746515    -0.22900
H1963       H  0.89362054  0.34001779  0.12722402     0.08300
C1964       C  0.84204473  0.36270416  0.13967691     0.04600
C1965       C  0.83796377  0.38846833  0.13896812    -0.20100
C1966       C  0.83849578  0.40110798  0.12230635    -0.12400
C1967       C  0.84093757  0.38762780  0.10591478     0.13300
C1968       C  0.84479945  0.36193364  0.10665442    -0.22800
C1969       C  0.84305675  0.34969057  0.15778610    -0.05900
H1970       H  0.83612905  0.39898438  0.15148501     0.14800
C1971       C  0.84035546  0.39990644  0.08748490    -0.16100
H1972       H  0.84813638  0.35171700  0.09417049     0.09200
H1973       H  0.92824773  0.28720494  0.13870930     0.07000
H1974       H  0.93057677  0.31878036  0.13108553     0.08200
H1975       H  0.93273425  0.29419499  0.11477350     0.07300
H1976       H  0.81145979  0.31544467  0.10591576     0.02100
H1977       H  0.80714075  0.31235700  0.13021260     0.02600
H1978       H  0.80779258  0.28515157  0.11593592     0.06100
H1979       H  0.82874266  0.33488384  0.15821728     0.05100
H1980       H  0.86155232  0.34114269  0.15974120    -0.00700
H1981       H  0.83968623  0.36273385  0.16923961     0.00800
H1982       H  0.85848024  0.39729909  0.08063329     0.04500
H1983       H  0.83636957  0.42009474  0.08823035     0.06400
H1984       H  0.82561525  0.39125012  0.07902877     0.07300
C1985       C  0.88357227  0.48783734  0.99713691    -0.22300
C1986       C  0.86271735  0.49144165  0.00816949     0.09600
C1987       C  0.83950515  0.49589714  0.99992205     0.10000
C1988       C  0.83746587  0.49549295  0.98088080    -0.17200
C1989       C  0.85808156  0.49093759  0.96968897    -0.27700
C1990       C  0.88163156  0.48735504  0.97800012     0.18400
C1991       C  0.86497026  0.48866622  0.02827850     0.12300
C1992       C  0.81679237  0.50088730  0.01124544    -0.12000
H1993       H  0.81946867  0.49850533  0.97466525     0.12600
C1994       C  0.90492949  0.48159337  0.96753340    -0.22900
H1995       H  0.90136729  0.48438586  0.00353679     0.08300
C1996       C  0.85922521  0.46592511  0.03683410     0.04600
C1997       C  0.85839808  0.46474661  0.05590442    -0.20100
C1998       C  0.86351516  0.48562965  0.06683266    -0.12400
C1999       C  0.87059412  0.50816937  0.05820852     0.13300
C2000       C  0.87124214  0.50930859  0.03903224    -0.22800
C2001       C  0.85365356  0.44292979  0.02580957    -0.05900
H2002       H  0.85321528  0.44739659  0.06235931     0.14800
C2003       C  0.87625826  0.53178395  0.06844888    -0.16100
H2004       H  0.87576650  0.52672846  0.03240499     0.09200
H2005       H  0.91294845  0.46384587  0.97255559     0.07000
H2006       H  0.91865143  0.49668427  0.96975954     0.08200
H2007       H  0.90206136  0.47937753  0.95275714     0.07300
H2008       H  0.81988440  0.51762417  0.01980784     0.02100
H2009       H  0.81286393  0.48475220  0.02018337     0.02600
H2010       H  0.80016657  0.50423775  0.00264641     0.06100
H2011       H  0.84972102  0.42664133  0.03463030     0.05100
H2012       H  0.86983087  0.43831227  0.01714096    -0.00700
H2013       H  0.83724221  0.44609882  0.01698796     0.00800
H2014       H  0.89556615  0.53764178  0.06550772     0.04500
H2015       H  0.87426564  0.53005869  0.08333582     0.06400
H2016       H  0.86342797  0.54669825  0.06389438     0.07300
C2017       C  0.94602731  0.23265045  0.00191227    -0.22300
C2018       C  0.95588603  0.21035121  0.00858214     0.09600
C2019       C  0.96335745  0.19180283  0.99610265     0.10000
C2020       C  0.95884394  0.19517282  0.97732715    -0.17200
C2021       C  0.94718351  0.21679890  0.97080350    -0.27700
C2022       C  0.94214144  0.23633375  0.98322730     0.18400
C2023       C  0.95461859  0.20569206  0.02854889     0.12300
C2024       C  0.97577763  0.16839039  0.00267774    -0.12000
H2025       H  0.96326161  0.18036988  0.96786435     0.12600
C2026       C  0.93291199  0.26146537  0.97727347    -0.22900
H2027       H  0.94063414  0.24709229  0.01142113     0.08300
C2028       C  0.96969708  0.21838057  0.04130763     0.04600
C2029       C  0.96467579  0.21602104  0.06006250    -0.20100
C2030       C  0.94467766  0.20160173  0.06620954    -0.12400
C2031       C  0.93061586  0.18779205  0.05346530     0.13300
C2032       C  0.93568894  0.19012033  0.03486157    -0.22800
C2033       C  0.99065412  0.23476068  0.03511918    -0.05900
H2034       H  0.97538339  0.22666528  0.06983986     0.14800
C2035       C  0.90985010  0.17063130  0.05900614    -0.16100
H2036       H  0.92413001  0.18034265  0.02511216     0.09200
H2037       H  0.94542367  0.27612276  0.98268316     0.07000
H2038       H  0.91398719  0.26460933  0.98268730     0.08200
H2039       H  0.93269324  0.26356485  0.96230266     0.07300
H2040       H  0.96318390  0.15791188  0.01178364     0.02100
H2041       H  0.99292686  0.17327481  0.01026567     0.02600
H2042       H  0.98094490  0.15602446  0.99119151     0.06100
H2043       H  0.00085616  0.24294897  0.04682336     0.05100
H2044       H  0.98338253  0.25025117  0.02668579    -0.00700
H2045       H  0.00392497  0.22364679  0.02694610     0.00800
H2046       H  0.89203542  0.17765177  0.05342831     0.04500
H2047       H  0.90802440  0.16867648  0.07395525     0.06400
H2048       H  0.91336971  0.15175924  0.05343685     0.07300
C2049       C  0.86754128  0.32634056  0.93058397    -0.22300
C2050       C  0.85106023  0.33011460  0.91611468     0.09600
C2051       C  0.84601748  0.31056181  0.90389009     0.10000
C2052       C  0.85840943  0.28778353  0.90602950    -0.17200
C2053       C  0.87626741  0.28455900  0.91976239    -0.27700
C2054       C  0.88038653  0.30386029  0.93249648     0.18400
C2055       C  0.84312760  0.35588001  0.91241551     0.12300
C2056       C  0.82810518  0.31404035  0.88836702    -0.12000
H2057       H  0.85514604  0.27292188  0.89634153     0.12600
C2058       C  0.89809354  0.30088110  0.94818534    -0.22900
H2059       H  0.87131368  0.34156693  0.93987074     0.08300
C2060       C  0.82430336  0.36776982  0.92247744     0.04600
C2061       C  0.82152452  0.39371203  0.92106168    -0.20100
C2062       C  0.83730133  0.40762470  0.90984953    -0.12400
C2063       C  0.85441456  0.39526965  0.89851410     0.13300
C2064       C  0.85732874  0.36956943  0.90009203    -0.22800
C2065       C  0.80769961  0.35316126  0.93492945    -0.05900
H2066       H  0.80810193  0.40325938  0.92949790     0.14800
C2067       C  0.86976972  0.40858434  0.88451645    -0.16100
H2068       H  0.87145545  0.36024504  0.89212454     0.09200
H2069       H  0.89263255  0.28437285  0.95627736     0.07000
H2070       H  0.89788662  0.31730702  0.95735793     0.08200
H2071       H  0.91729351  0.29867325  0.94309641     0.07300
H2072       H  0.83468951  0.32910870  0.87926845     0.02100
H2073       H  0.80958736  0.31906852  0.89378918     0.02600
H2074       H  0.82614417  0.29682526  0.88012983     0.06100
H2075       H  0.79378719  0.36528285  0.94165061     0.05100
H2076       H  0.81890371  0.34394066  0.94566415    -0.00700
H2077       H  0.79764457  0.33878214  0.92696065     0.00800
H2078       H  0.88975913  0.40618047  0.88767915     0.04500
H2079       H  0.86568022  0.42872787  0.88350122     0.06400
H2080       H  0.86564162  0.40042740  0.87099808     0.07300
C2081       C  0.24466728  0.72347981  0.40749989    -0.22300
C2082       C  0.24446973  0.70390562  0.42007856     0.09600
C2083       C  0.26400987  0.70154054  0.43275674     0.10000
C2084       C  0.28352735  0.71869253  0.43239044    -0.17200
C2085       C  0.28372806  0.73846640  0.41992953    -0.27700
C2086       C  0.26395348  0.74100345  0.40737199     0.18400
C2087       C  0.22383183  0.68581993  0.41963699     0.12300
C2088       C  0.26404622  0.68126468  0.44692410    -0.12000
H2089       H  0.29854420  0.71690118  0.44212934     0.12600
C2090       C  0.26338079  0.76158931  0.39348111    -0.22900
H2091       H  0.22966728  0.72497779  0.39772886     0.08300
C2092       C  0.19992965  0.69210715  0.42582802     0.04600
C2093       C  0.18147532  0.67377996  0.42614709    -0.20100
C2094       C  0.18647220  0.64922316  0.42071800    -0.12400
C2095       C  0.21034675  0.64315537  0.41404465     0.13300
C2096       C  0.22861792  0.66166249  0.41344558    -0.22800
C2097       C  0.19407760  0.71788854  0.43262807    -0.05900
H2098       H  0.16323099  0.67852064  0.43120577     0.14800
C2099       C  0.21679914  0.61744383  0.40734855    -0.16100
H2100       H  0.24697506  0.65718833  0.40846505     0.09200
H2101       H  0.26208425  0.77988308  0.40040621     0.07000
H2102       H  0.24715841  0.75992949  0.38422423     0.08200
H2103       H  0.28042317  0.76092563  0.38506638     0.07300
H2104       H  0.26481304  0.66275259  0.44028208     0.02100
H2105       H  0.24697562  0.68256071  0.45527080     0.02600
H2106       H  0.28026452  0.68276065  0.45619702     0.06100
H2107       H  0.17466345  0.71937223  0.43748976     0.05100
H2108       H  0.19657346  0.73161123  0.42151956    -0.00700
H2109       H  0.20658970  0.72267702  0.44412251     0.00800
H2110       H  0.23583219  0.61665795  0.40166299     0.04500
H2111       H  0.20369631  0.61177758  0.39643347     0.06400
H2112       H  0.21602324  0.60395943  0.41875364     0.07300
C2113       C  0.30772265  0.19421026  0.43452444    -0.22300
C2114       C  0.32014400  0.19422859  0.41783000     0.09600
C2115       C  0.31315550  0.21126890  0.40416482     0.10000
C2116       C  0.29279911  0.22700774  0.40717020    -0.17200
C2117       C  0.27915466  0.22551864  0.42335343    -0.27700
C2118       C  0.28729088  0.20966437  0.43749676     0.18400
C2119       C  0.33703673  0.17325987  0.41411034     0.12300
C2120       C  0.32669561  0.21224058  0.38629787    -0.12000
H2121       H  0.28658883  0.23937844  0.39643846     0.12600
C2122       C  0.27479286  0.20836445  0.45579944    -0.22900
H2123       H  0.31324401  0.18110626  0.44500230     0.08300
C2124       C  0.36076852  0.17157387  0.42203834     0.04600
C2125       C  0.37387430  0.14907942  0.42082388    -0.20100
C2126       C  0.36340369  0.12812224  0.41230471    -0.12400
C2127       C  0.34001013  0.13032946  0.40363662     0.13300
C2128       C  0.32728515  0.15297683  0.40455322    -0.22800
C2129       C  0.37195658  0.19329947  0.43204381    -0.05900
H2130       H  0.39184607  0.14752394  0.42734296     0.14800
C2131       C  0.32805843  0.10901130  0.39355664    -0.16100
H2132       H  0.30894940  0.15452790  0.39858483     0.09200
H2133       H  0.28859339  0.21233585  0.46665272     0.07000
H2134       H  0.26718928  0.18940158  0.45792658     0.08200
H2135       H  0.25956911  0.22202216  0.45735462     0.07300
H2136       H  0.32520415  0.19406881  0.37921104     0.02100
H2137       H  0.34654390  0.21652424  0.38877948     0.02600
H2138       H  0.31896872  0.22678369  0.37717365     0.06100
H2139       H  0.39079405  0.18892017  0.43726545     0.05100
H2140       H  0.36015647  0.19841987  0.44380628    -0.00700
H2141       H  0.37340758  0.20946810  0.42271886     0.00800
H2142       H  0.31068046  0.11481219  0.38661802     0.04500
H2143       H  0.32313813  0.09392850  0.40318325     0.06400
H2144       H  0.34090243  0.10182091  0.38301665     0.07300
C2145       C  0.36778197  0.90212057  0.41805903    -0.22300
C2146       C  0.34580542  0.91584802  0.41816319     0.09600
C2147       C  0.32283679  0.90347042  0.41888564     0.10000
C2148       C  0.32245029  0.87733425  0.41957859    -0.17200
C2149       C  0.34458228  0.86347375  0.42024608    -0.27700
C2150       C  0.36762077  0.87622856  0.41961573     0.18400
C2151       C  0.34806090  0.94320521  0.41899317     0.12300
C2152       C  0.29892611  0.91786006  0.41949259    -0.12000
H2153       H  0.30480266  0.86777161  0.42015331     0.12600
C2154       C  0.39228301  0.86312432  0.42101153    -0.22900
H2155       H  0.38529234  0.91195567  0.41762944     0.08300
C2156       C  0.35666539  0.95480371  0.43501682     0.04600
C2157       C  0.36363333  0.97981064  0.43446375    -0.20100
C2158       C  0.36220381  0.99357384  0.41830341    -0.12400
C2159       C  0.35202208  0.98243250  0.40249692     0.13300
C2160       C  0.34512574  0.95721239  0.40304882    -0.22800
C2161       C  0.35918659  0.94060195  0.45261288    -0.05900
H2162       H  0.37117064  0.98844856  0.44660939     0.14800
C2163       C  0.34972640  0.99645962  0.38483575    -0.16100
H2164       H  0.33861327  0.94803617  0.39078755     0.09200
H2165       H  0.39404162  0.85406777  0.43452373     0.07000
H2166       H  0.40810809  0.87618224  0.41960087     0.08200
H2167       H  0.39394933  0.84900344  0.41010179     0.07300
H2168       H  0.29705403  0.92937861  0.40703862     0.02100
H2169       H  0.29881565  0.93018150  0.43162458     0.02600
H2170       H  0.28260709  0.90533122  0.42030595     0.06100
H2171       H  0.36554269  0.95275228  0.46392602     0.05100
H2172       H  0.37289788  0.92536944  0.45111149    -0.00700
H2173       H  0.34097022  0.93259890  0.45643035     0.00800
H2174       H  0.34190666  0.98461752  0.37384026     0.04500
H2175       H  0.36819388  0.00305340  0.38034534     0.06400
H2176       H  0.33720861  0.01264522  0.38665566     0.07300
C2177       C  0.23191105  0.72755095  0.63293767    -0.22300
C2178       C  0.23655158  0.70512399  0.64197664     0.09600
C2179       C  0.25974141  0.70104976  0.65033228     0.10000
C2180       C  0.27820689  0.71928883  0.64889334    -0.17200
C2181       C  0.27384758  0.74158227  0.63945731    -0.27700
C2182       C  0.25021382  0.74594842  0.63162283     0.18400
C2183       C  0.21762669  0.68532767  0.64101460     0.12300
C2184       C  0.26494730  0.67745556  0.66071013    -0.12000
H2185       H  0.29619427  0.71604634  0.65504385     0.12600
C2186       C  0.24441226  0.76932561  0.62110761    -0.22900
H2187       H  0.21406680  0.73033101  0.62644619     0.08300
C2188       C  0.19577485  0.68616672  0.65144790     0.04600
C2189       C  0.17817239  0.66714273  0.64943852    -0.20100
C2190       C  0.18188409  0.64751842  0.63709835    -0.12400
C2191       C  0.20344602  0.64733731  0.62612725     0.13300
C2192       C  0.22123535  0.66598748  0.62855492    -0.22800
C2193       C  0.19124204  0.70690630  0.66481590    -0.05900
H2194       H  0.16155160  0.66744094  0.65768981     0.14800
C2195       C  0.20791111  0.62881913  0.61104112    -0.16100
H2196       H  0.23778966  0.66591585  0.62021141     0.09200
H2197       H  0.24548156  0.78572199  0.63025433     0.07000
H2198       H  0.22544703  0.76889779  0.61520964     0.08200
H2199       H  0.25772437  0.77149958  0.60972245     0.07300
H2200       H  0.26351176  0.66116092  0.65149588     0.02100
H2201       H  0.25132029  0.67543151  0.67190392     0.02600
H2202       H  0.28382554  0.67750624  0.66676396     0.06100
H2203       H  0.17343320  0.70445341  0.67213583     0.05100
H2204       H  0.19053927  0.72499595  0.65756729    -0.00700
H2205       H  0.20642658  0.70737153  0.67503359     0.00800
H2206       H  0.21239419  0.63894371  0.59829896     0.04500
H2207       H  0.19166300  0.61706917  0.60785228     0.06400
H2208       H  0.22383670  0.61670878  0.61467104     0.07300
C2209       C  0.32487816  0.77537475  0.54513754    -0.22300
C2210       C  0.34898622  0.77541087  0.53813845     0.09600
C2211       C  0.36930487  0.77593183  0.55026705     0.10000
C2212       C  0.36502053  0.77673461  0.56916020    -0.17200
C2213       C  0.34084239  0.77756767  0.57623697    -0.27700
C2214       C  0.32047573  0.77652105  0.56396396     0.18400
C2215       C  0.35223094  0.77602497  0.51802437     0.12300
C2216       C  0.39547609  0.77578088  0.54323905    -0.12000
H2217       H  0.38066276  0.77755401  0.57841625     0.12600
C2218       C  0.29398989  0.77631034  0.57047324    -0.22900
H2219       H  0.30937827  0.77493030  0.53573096     0.08300
C2220       C  0.34888022  0.75461385  0.50713668     0.04600
C2221       C  0.34984597  0.75670478  0.48804821    -0.20100
C2222       C  0.35375541  0.77979786  0.47962952    -0.12400
C2223       C  0.35815424  0.80103797  0.49059068     0.13300
C2224       C  0.35720372  0.79887640  0.50961960    -0.22800
C2225       C  0.34394269  0.72967232  0.51568663    -0.05900
H2226       H  0.34642353  0.74046778  0.47965797     0.14800
C2227       C  0.36419967  0.82621666  0.48271784    -0.16100
H2228       H  0.35996923  0.81527068  0.51798513     0.09200
H2229       H  0.28071014  0.77360255  0.55906930     0.07000
H2230       H  0.28935625  0.79431104  0.57701844     0.08200
H2231       H  0.29125090  0.76086008  0.58028382     0.07300
H2232       H  0.39871865  0.79246753  0.53468722     0.02100
H2233       H  0.39859803  0.75880534  0.53494631     0.02600
H2234       H  0.40923696  0.77593607  0.55450262     0.06100
H2235       H  0.34202936  0.71480040  0.50528359     0.05100
H2236       H  0.32650884  0.73038120  0.52364312    -0.00700
H2237       H  0.35952121  0.72466049  0.52487836     0.00800
H2238       H  0.34951410  0.83971980  0.48648627     0.04500
H2239       H  0.36601765  0.82605866  0.46770879     0.06400
H2240       H  0.38216217  0.83276729  0.48835629     0.07300
C2241       C  0.36768726  0.16302905  0.61849201    -0.22300
C2242       C  0.34492476  0.16204217  0.62751858     0.09600
C2243       C  0.33838840  0.14073363  0.63755118     0.10000
C2244       C  0.35464938  0.12049890  0.63802267    -0.17200
C2245       C  0.37720706  0.12091933  0.62852952    -0.27700
C2246       C  0.38402687  0.14269036  0.61885060     0.18400
C2247       C  0.32717958  0.18265072  0.62533388     0.12300
C2248       C  0.31391286  0.13908341  0.64733382    -0.12000
H2249       H  0.34937820  0.10398630  0.64551857     0.12600
C2250       C  0.40785864  0.14441486  0.60828620    -0.22900
H2251       H  0.37234253  0.17953965  0.61077529     0.08300
C2252       C  0.32542088  0.20187521  0.63829073     0.04600
C2253       C  0.30560418  0.21866522  0.63720892    -0.20100
C2254       C  0.28754760  0.21636628  0.62354984    -0.12400
C2255       C  0.29037077  0.19811460  0.60980970     0.13300
C2256       C  0.31025246  0.18144060  0.61090703    -0.22800
C2257       C  0.34414228  0.20426964  0.65341516    -0.05900
H2258       H  0.30360225  0.23293617  0.64752864     0.14800
C2259       C  0.27275074  0.19623728  0.59389353    -0.16100
H2260       H  0.31210310  0.16676174  0.60087596     0.09200
H2261       H  0.42389802  0.14243461  0.61765957     0.07000
H2262       H  0.40970965  0.16260841  0.60126788     0.08200
H2263       H  0.40845087  0.12961478  0.59774948     0.07300
H2264       H  0.29845878  0.14099704  0.63743221     0.02100
H2265       H  0.31254519  0.15413210  0.65761828     0.02600
H2266       H  0.31171296  0.12101477  0.65446395     0.06100
H2267       H  0.34002758  0.22037302  0.66238541     0.05100
H2268       H  0.36288083  0.20695948  0.64754392    -0.00700
H2269       H  0.34416860  0.18720239  0.66189399     0.00800
H2270       H  0.27895880  0.18210357  0.58385848     0.04500
H2271       H  0.27164219  0.21444164  0.58680343     0.06400
H2272       H  0.25405651  0.19067064  0.59860277     0.07300
C2273       C  0.42654334  0.04232243  0.53871404    -0.22300
C2274       C  0.43020753  0.06598040  0.53118845     0.09600
C2275       C  0.43495653  0.08631736  0.54286729     0.10000
C2276       C  0.43556967  0.08256606  0.56183676    -0.17200
C2277       C  0.43069955  0.05909329  0.56939942    -0.27700
C2278       C  0.42667108  0.03858925  0.55762520     0.18400
C2279       C  0.42674899  0.06912972  0.51119930     0.12300
C2280       C  0.43858468  0.11207113  0.53532202    -0.12000
H2281       H  0.43838048  0.09831238  0.57082722     0.12600
C2282       C  0.42246189  0.01249930  0.56447640    -0.22900
H2283       H  0.42290238  0.02671141  0.52974394     0.08300
C2284       C  0.44529863  0.06266818  0.49854906     0.04600
C2285       C  0.43995270  0.06342772  0.47976604    -0.20100
C2286       C  0.41629707  0.07013279  0.47330361    -0.12400
C2287       C  0.39808145  0.07770849  0.48611792     0.13300
C2288       C  0.40361322  0.07708040  0.50481681    -0.22800
C2289       C  0.47061272  0.05471123  0.50492431    -0.05900
H2290       H  0.45407280  0.05787138  0.47013269     0.14800
C2291       C  0.37272931  0.08660644  0.48037453    -0.16100
H2292       H  0.38952230  0.08217756  0.51462673     0.09200
H2293       H  0.43624975  0.99978246  0.55823166     0.07000
H2294       H  0.40356979  0.00623513  0.56058875     0.08200
H2295       H  0.42454373  0.01081931  0.57941062     0.07300
H2296       H  0.42168097  0.11800242  0.52785445     0.02100
H2297       H  0.45458986  0.11215015  0.52587129     0.02600
H2298       H  0.44222699  0.12586129  0.54626548     0.06100
H2299       H  0.48309501  0.05054573  0.49332667     0.05100
H2300       H  0.46907935  0.03770591  0.51340206    -0.00700
H2301       H  0.47913548  0.06981049  0.51313544     0.00800
H2302       H  0.36175772  0.09343873  0.49212765     0.04500
H2303       H  0.36211582  0.07113477  0.47410927     0.06400
H2304       H  0.37453994  0.10219557  0.47056283     0.07300
C2305       C  0.33768727  0.90661246  0.64478897    -0.22300
C2306       C  0.34002639  0.91781039  0.62765076     0.09600
C2307       C  0.33494231  0.90384816  0.61180982     0.10000
C2308       C  0.32975901  0.87843385  0.61343758    -0.17200
C2309       C  0.32944238  0.86685872  0.63050262    -0.27700
C2310       C  0.33277866  0.88114794  0.64644610     0.18400
C2311       C  0.35229987  0.94235405  0.62660572     0.12300
C2312       C  0.33542697  0.91562577  0.59321219    -0.12000
H2313       H  0.32702475  0.86729065  0.60129532     0.12600
C2314       C  0.33325536  0.86997600  0.66526200    -0.22900
H2315       H  0.34174225  0.91734108  0.65690691     0.08300
C2316       C  0.34120523  0.96430108  0.63313889     0.04600
C2317       C  0.35482715  0.98654224  0.63292044    -0.20100
C2318       C  0.37945362  0.98722299  0.62664679    -0.12400
C2319       C  0.39056905  0.96494385  0.62029646     0.13300
C2320       C  0.37665518  0.94301537  0.62012358    -0.22800
C2321       C  0.31492254  0.96435346  0.63997540    -0.05900
H2322       H  0.34618670  0.00346572  0.63780503     0.14800
C2323       C  0.41696181  0.96376163  0.61364357    -0.16100
H2324       H  0.38502590  0.92597516  0.61519148     0.09200
H2325       H  0.31850082  0.87862361  0.67364468     0.07000
H2326       H  0.35145999  0.87376640  0.67176450     0.08200
H2327       H  0.33036194  0.84958793  0.66532915     0.07300
H2328       H  0.35426351  0.92256766  0.59003565     0.02100
H2329       H  0.32214036  0.93138616  0.59278342     0.02600
H2330       H  0.33010813  0.90216842  0.58241434     0.06100
H2331       H  0.30884458  0.98329903  0.64402044     0.05100
H2332       H  0.31324604  0.95211052  0.65204675    -0.00700
H2333       H  0.30229464  0.95757584  0.62910174     0.00800
H2334       H  0.42218115  0.94474193  0.60914559     0.04500
H2335       H  0.42983856  0.96903953  0.62479515     0.06400
H2336       H  0.41938990  0.97638020  0.60184871     0.07300
C2337       C  0.43866175  0.88709841  0.18533353    -0.22300
C2338       C  0.41733403  0.89882928  0.17859512     0.09600
C2339       C  0.39671687  0.88432334  0.17333856     0.10000
C2340       C  0.39754842  0.85844463  0.17591399    -0.17200
C2341       C  0.41794010  0.84719306  0.18444766    -0.27700
C2342       C  0.43870147  0.86173118  0.18937901     0.18400
C2343       C  0.41584551  0.92618442  0.18060408     0.12300
C2344       C  0.37339307  0.89617183  0.16612636    -0.12000
H2345       H  0.38159007  0.84715478  0.17239326     0.12600
C2346       C  0.46034082  0.85171577  0.20016285    -0.22900
H2347       H  0.45448586  0.89833512  0.18929095     0.08300
C2348       C  0.41680697  0.93693003  0.19810998     0.04600
C2349       C  0.41943240  0.96259880  0.19975889    -0.20100
C2350       C  0.41955840  0.97829256  0.18444149    -0.12400
C2351       C  0.41518992  0.96769898  0.16706288     0.13300
C2352       C  0.41447568  0.94165166  0.16526206    -0.22800
C2353       C  0.41522234  0.92142349  0.21521647    -0.05900
H2354       H  0.42276878  0.97006095  0.21320851     0.14800
C2355       C  0.41052692  0.98315836  0.15033336    -0.16100
H2356       H  0.41287976  0.93342501  0.15184873     0.09200
H2357       H  0.46146407  0.86158964  0.21341455     0.07000
H2358       H  0.47782768  0.85501932  0.19262096     0.08200
H2359       H  0.45889417  0.83155949  0.20301556     0.07300
H2360       H  0.37735212  0.90600303  0.15319697     0.02100
H2361       H  0.36605105  0.90963387  0.17622743     0.02600
H2362       H  0.35876884  0.88212332  0.16336794     0.06100
H2363       H  0.41414423  0.93319624  0.22761179     0.05100
H2364       H  0.43178254  0.90941374  0.21672039    -0.00700
H2365       H  0.39830780  0.90968534  0.21474914     0.00800
H2366       H  0.42583998  0.98049991  0.14046862     0.04500
H2367       H  0.40854915  0.00320052  0.15350376     0.06400
H2368       H  0.39286591  0.97721130  0.14387629     0.07300
C2369       C  0.55849941  0.76956533  0.19639231    -0.22300
C2370       C  0.54630964  0.75925547  0.18138582     0.09600
C2371       C  0.55963836  0.74454773  0.16889040     0.10000
C2372       C  0.58503110  0.74048870  0.17180497    -0.17200
C2373       C  0.59719766  0.75015010  0.18719285    -0.27700
C2374       C  0.58365867  0.76512253  0.19960661     0.18400
C2375       C  0.51924087  0.76281613  0.18029202     0.12300
C2376       C  0.54751153  0.73231801  0.15275400    -0.12000
H2377       H  0.59517447  0.72884584  0.16234410     0.12600
C2378       C  0.59467366  0.77700308  0.21632521    -0.22900
H2379       H  0.54805237  0.78075625  0.20598036     0.08300
C2380       C  0.50304610  0.74765706  0.19030307     0.04600
C2381       C  0.47812408  0.75438489  0.19160515    -0.20100
C2382       C  0.46871400  0.77641406  0.18370988    -0.12400
C2383       C  0.48476703  0.79022827  0.17210123     0.13300
C2384       C  0.50989569  0.78337209  0.17086764    -0.22800
C2385       C  0.51163581  0.72476993  0.20040399    -0.05900
H2386       H  0.46604104  0.74220265  0.19924820     0.14800
C2387       C  0.47639408  0.81202133  0.16082639    -0.16100
H2388       H  0.52258696  0.79448014  0.16284908     0.09200
H2389       H  0.58485875  0.77015597  0.22860005     0.07000
H2390       H  0.59249283  0.79751344  0.21549715     0.08200
H2391       H  0.61446838  0.77301031  0.21810707     0.07300
H2392       H  0.54977942  0.71183100  0.15375296     0.02100
H2393       H  0.52742420  0.73641091  0.15175710     0.02600
H2394       H  0.55650231  0.73895888  0.14009666     0.06100
H2395       H  0.50102626  0.70831048  0.19567452     0.05100
H2396       H  0.50836787  0.72731280  0.21519642    -0.00700
H2397       H  0.53156434  0.72065744  0.19840839     0.00800
H2398       H  0.49221597  0.82170542  0.15428815     0.04500
H2399       H  0.46671684  0.82587364  0.16927434     0.06400
H2400       H  0.46425604  0.80537305  0.14964581     0.07300
C2401       C  0.69991120  0.87457138  0.16788639    -0.22300
C2402       C  0.67659006  0.86352061  0.16579260     0.09600
C2403       C  0.65520179  0.87861353  0.16502364     0.10000
C2404       C  0.65752206  0.90436480  0.16763862    -0.17200
C2405       C  0.68065169  0.91509402  0.17144851    -0.27700
C2406       C  0.70225794  0.90023730  0.17064340     0.18400
C2407       C  0.67456499  0.83667977  0.16969424     0.12300
C2408       C  0.62984418  0.86733156  0.16264406    -0.12000
H2409       H  0.64101905  0.91585915  0.16810994     0.12600
C2410       C  0.72796145  0.91071319  0.17300841    -0.22900
H2411       H  0.71626738  0.86287490  0.16857982     0.08300
C2412       C  0.67543772  0.81798605  0.15629057     0.04600
C2413       C  0.67293532  0.79291140  0.16157515    -0.20100
C2414       C  0.67030804  0.78626241  0.18001110    -0.12400
C2415       C  0.67035540  0.80543720  0.19340064     0.13300
C2416       C  0.67223723  0.83019527  0.18794339    -0.22800
C2417       C  0.67896301  0.82456782  0.13658513    -0.05900
H2418       H  0.67292619  0.77845818  0.15128674     0.14800
C2419       C  0.66752382  0.80076780  0.21349161    -0.16100
H2420       H  0.67190282  0.84488922  0.19807163     0.09200
H2421       H  0.73946650  0.90549843  0.16110121     0.07000
H2422       H  0.73654469  0.90289415  0.18550576     0.08200
H2423       H  0.72817648  0.93128277  0.17394642     0.07300
H2424       H  0.62586422  0.85438250  0.17402489     0.02100
H2425       H  0.62902446  0.85694952  0.14960440     0.02600
H2426       H  0.61511616  0.88176913  0.16241670     0.06100
H2427       H  0.67933998  0.80773049  0.12782784     0.05100
H2428       H  0.69678381  0.83460706  0.13488120    -0.00700
H2429       H  0.66357136  0.83669702  0.13191531     0.00800
H2430       H  0.68443392  0.79195018  0.21909165     0.04500
H2431       H  0.65110592  0.78914247  0.21592846     0.06400
H2432       H  0.66481243  0.81825399  0.22129358     0.07300
C2433       C  0.52516786  0.97932498  0.17456214    -0.22300
C2434       C  0.54492431  0.99558651  0.17798638     0.09600
C2435       C  0.53978784  0.02005338  0.18382345     0.10000
C2436       C  0.51509334  0.02771260  0.18606237    -0.17200
C2437       C  0.49513096  0.01137121  0.18308344    -0.27700
C2438       C  0.50038334  0.98668410  0.17732383     0.18400
C2439       C  0.57090411  0.98618107  0.17712834     0.12300
C2440       C  0.56045473  0.03780739  0.18837629    -0.12000
H2441       H  0.51133781  0.04654383  0.19055971     0.12600
C2442       C  0.48044646  0.96731880  0.17535003    -0.22900
H2443       H  0.52927092  0.96044092  0.17035898     0.08300
C2444       C  0.58073049  0.97130835  0.19121479     0.04600
C2445       C  0.60617519  0.96594159  0.19146897    -0.20100
C2446       C  0.62233195  0.97533982  0.17814416    -0.12400
C2447       C  0.61222950  0.98901927  0.16341108     0.13300
C2448       C  0.58659637  0.99416600  0.16308034    -0.22800
C2449       C  0.56460511  0.96208321  0.20649848    -0.05900
H2450       H  0.61374843  0.95516520  0.20264327     0.14800
C2451       C  0.62831816  0.99949150  0.14857002    -0.16100
H2452       H  0.57888576  0.00535351  0.15220766     0.09200
H2453       H  0.48827067  0.94863274  0.17242239     0.07000
H2454       H  0.46798799  0.97198378  0.16389081     0.08200
H2455       H  0.46991598  0.96590216  0.18823019     0.07300
H2456       H  0.57223107  0.04061866  0.17623843     0.02100
H2457       H  0.57195501  0.03001653  0.19955462     0.02600
H2458       H  0.55333894  0.05622736  0.19278792     0.06100
H2459       H  0.57540198  0.95131293  0.21668876     0.05100
H2460       H  0.54990155  0.94974127  0.20100623    -0.00700
H2461       H  0.55590650  0.97809833  0.21357668     0.00800
H2462       H  0.63662036  0.98421434  0.14052055     0.04500
H2463       H  0.64314535  0.01127326  0.15453525     0.06400
H2464       H  0.61745588  0.01115582  0.13896586     0.07300
C2465       C  0.40905344  0.05379503  0.25305268    -0.22300
C2466       C  0.43034380  0.06097598  0.26264407     0.09600
C2467       C  0.45117643  0.06917853  0.25277244     0.10000
C2468       C  0.45184617  0.06574953  0.23382761    -0.17200
C2469       C  0.43220607  0.05401849  0.22448308    -0.27700
C2470       C  0.40931499  0.05167395  0.23396141     0.18400
C2471       C  0.43249779  0.05518580  0.28239895     0.12300
C2472       C  0.47306807  0.08067138  0.26236567    -0.12000
H2473       H  0.46844805  0.07092775  0.22652839     0.12600
C2474       C  0.38485532  0.04760204  0.22448575    -0.22900
H2475       H  0.39241271  0.04898642  0.26049384     0.08300
C2476       C  0.42126828  0.06927541  0.29626712     0.04600
C2477       C  0.42542062  0.06283135  0.31467122    -0.20100
C2478       C  0.44071104  0.04250938  0.31965416    -0.12400
C2479       C  0.45170276  0.02827152  0.30524441     0.13300
C2480       C  0.44708413  0.03476531  0.28709670    -0.22800
C2481       C  0.40532378  0.09135674  0.29162882    -0.05900
H2482       H  0.41681190  0.07414303  0.32495469     0.14800
C2483       C  0.46888324  0.00628657  0.30822912    -0.16100
H2484       H  0.45544936  0.02401694  0.27623062     0.09200
H2485       H  0.37175678  0.06254107  0.22851584     0.07000
H2486       H  0.37687669  0.02940658  0.22855455     0.08200
H2487       H  0.38650740  0.04843887  0.20947197     0.07300
H2488       H  0.48154603  0.06715396  0.27192884     0.02100
H2489       H  0.46687627  0.09730588  0.27007983     0.02600
H2490       H  0.48758520  0.08661358  0.25261302     0.06100
H2491       H  0.39818204  0.10071780  0.30402457     0.05100
H2492       H  0.38920940  0.08527207  0.28333622    -0.00700
H2493       H  0.41630704  0.10508200  0.28376360     0.00800
H2494       H  0.45966085  0.99111948  0.31571628     0.04500
H2495       H  0.48601902  0.01198345  0.31530752     0.06400
H2496       H  0.47503120  0.99793933  0.29517214     0.07300
C2497       C  0.38566155  0.75761811  0.29860246    -0.22300
C2498       C  0.37982609  0.77830984  0.28781821     0.09600
C2499       C  0.37188309  0.80034632  0.29638306     0.10000
C2500       C  0.37316579  0.80220544  0.31541888    -0.17200
C2501       C  0.38350664  0.78303868  0.32618403    -0.27700
C2502       C  0.38697895  0.75944707  0.31768339     0.18400
C2503       C  0.38635529  0.77807072  0.26813276     0.12300
C2504       C  0.36351452  0.82249910  0.28540941    -0.12000
H2505       H  0.36679459  0.81922552  0.32162539     0.12600
C2506       C  0.39290466  0.73594775  0.32801602    -0.22900
H2507       H  0.39063748  0.74026243  0.29202288     0.08300
C2508       C  0.41126877  0.78044792  0.26284232     0.04600
C2509       C  0.41713980  0.78246969  0.24436684    -0.20100
C2510       C  0.39897529  0.78152798  0.23043194    -0.12400
C2511       C  0.37364616  0.78105185  0.23607589     0.13300
C2512       C  0.36783395  0.77857649  0.25473696    -0.22800
C2513       C  0.43177868  0.78225775  0.27681114    -0.05900
H2514       H  0.43624541  0.78633498  0.24112953     0.14800
C2515       C  0.35236462  0.78477782  0.22302789    -0.16100
H2516       H  0.34863523  0.77784161  0.25899040     0.09200
H2517       H  0.41164780  0.72921953  0.32421418     0.07000
H2518       H  0.37912963  0.72139624  0.32443668     0.08200
H2519       H  0.39216178  0.73831144  0.34294206     0.07300
H2520       H  0.34692105  0.81749704  0.27724610     0.02100
H2521       H  0.37858143  0.82855579  0.27616138     0.02600
H2522       H  0.35853850  0.83851060  0.29422891     0.06100
H2523       H  0.45019061  0.78502707  0.27041711     0.05100
H2524       H  0.43269235  0.76488120  0.28491760    -0.00700
H2525       H  0.42829694  0.79824699  0.28603150     0.00800
H2526       H  0.33479917  0.78864944  0.23034672     0.04500
H2527       H  0.34911845  0.76770182  0.21496866     0.06400
H2528       H  0.35592018  0.80094075  0.21402278     0.07300
C2529       C  0.39688599  0.89103479  0.37185427    -0.22300
C2530       C  0.42097977  0.89806328  0.37672257     0.09600
C2531       C  0.43789464  0.87979595  0.38271239     0.10000
C2532       C  0.43136769  0.85455954  0.38136698    -0.17200
C2533       C  0.40846061  0.84736941  0.37399810    -0.27700
C2534       C  0.39020894  0.86587306  0.37088566     0.18400
C2535       C  0.42876164  0.92412352  0.37354426     0.12300
C2536       C  0.46295669  0.88697624  0.39007499    -0.12000
H2537       H  0.44461022  0.84053645  0.38533428     0.12600
C2538       C  0.36354513  0.85967335  0.36676079    -0.22900
H2539       H  0.38346640  0.90520978  0.36821194     0.08300
C2540       C  0.44075193  0.93085292  0.35724801     0.04600
C2541       C  0.44676760  0.95584604  0.35415677    -0.20100
C2542       C  0.44062601  0.97455299  0.36673859    -0.12400
C2543       C  0.42887924  0.96763380  0.38322333     0.13300
C2544       C  0.42301105  0.94248336  0.38635126    -0.22800
C2545       C  0.44640448  0.91176660  0.34279465    -0.05900
H2546       H  0.45588588  0.96091723  0.34157372     0.14800
C2547       C  0.42144835  0.98645940  0.39728089    -0.16100
H2548       H  0.41361533  0.93710756  0.39875423     0.09200
H2549       H  0.35871243  0.86607852  0.35284191     0.07000
H2550       H  0.35138371  0.86927046  0.37671155     0.08200
H2551       H  0.35958724  0.83949747  0.36788438     0.07300
H2552       H  0.46057457  0.89909509  0.40218116     0.02100
H2553       H  0.47366374  0.89721208  0.37962213     0.02600
H2554       H  0.47390132  0.87040944  0.39421661     0.06100
H2555       H  0.45545222  0.92026385  0.33075232     0.05100
H2556       H  0.42895229  0.90280373  0.33817574    -0.00700
H2557       H  0.45903288  0.89731277  0.34828797     0.00800
H2558       H  0.41019578  0.00131706  0.39087431     0.04500
H2559       H  0.43805347  0.99447257  0.40389443     0.06400
H2560       H  0.41029524  0.97783600  0.40825282     0.07300
C2561       C  0.68518836  0.71393333  0.29546490    -0.22300
C2562       C  0.66750728  0.70432839  0.28337800     0.09600
C2563       C  0.64476708  0.69580707  0.29035304     0.10000
C2564       C  0.63896516  0.70024084  0.30868282    -0.17200
C2565       C  0.65465847  0.71446253  0.32008583    -0.27700
C2566       C  0.67923521  0.71900883  0.31372318     0.18400
C2567       C  0.67048155  0.70880567  0.26351109     0.12300
C2568       C  0.62583872  0.68350188  0.27819308    -0.12000
H2569       H  0.62154647  0.69326088  0.31356625     0.12600
C2570       C  0.69947477  0.73048400  0.32518142    -0.22900
H2571       H  0.70309083  0.71954008  0.29022988     0.08300
C2572       C  0.66754176  0.73304776  0.25668422     0.04600
C2573       C  0.66550836  0.73663981  0.23798424    -0.20100
C2574       C  0.66661704  0.71698970  0.22522030    -0.12400
C2575       C  0.67082429  0.69254214  0.23216586     0.13300
C2576       C  0.67271367  0.68892763  0.25121998    -0.22800
C2577       C  0.66503005  0.75530118  0.26912176    -0.05900
H2578       H  0.66158637  0.75526058  0.23334362     0.14800
C2579       C  0.67236803  0.66988331  0.22027214    -0.16100
H2580       H  0.67497839  0.67032841  0.25665802     0.09200
H2581       H  0.70503892  0.74861527  0.31922265     0.07000
H2582       H  0.71582243  0.71793835  0.32529204     0.08200
H2583       H  0.69419835  0.73365537  0.33949016     0.07300
H2584       H  0.63368564  0.66614515  0.27240392     0.02100
H2585       H  0.62053888  0.69625382  0.26695688     0.02600
H2586       H  0.60873189  0.67852668  0.28572014     0.06100
H2587       H  0.66172541  0.77277979  0.26143388     0.05100
H2588       H  0.68231383  0.75786826  0.27710575    -0.00700
H2589       H  0.64919336  0.75259649  0.27852343     0.00800
H2590       H  0.68865627  0.67141709  0.21117398     0.04500
H2591       H  0.65485691  0.66758175  0.21250746     0.06400
H2592       H  0.67499260  0.65262976  0.22835891     0.07300
C2593       C  0.54035482  0.75972341  0.34938102    -0.22300
C2594       C  0.53139861  0.75604571  0.36701554     0.09600
C2595       C  0.54720785  0.74630803  0.38053575     0.10000
C2596       C  0.57184280  0.74050049  0.37606931    -0.17200
C2597       C  0.58085240  0.74398102  0.35834626    -0.27700
C2598       C  0.56487762  0.75400011  0.34481187     0.18400
C2599       C  0.50527430  0.76274611  0.37065237     0.12300
C2600       C  0.53815572  0.74242174  0.39966252    -0.12000
H2601       H  0.58416312  0.73325599  0.38646068     0.12600
C2602       C  0.57357566  0.76010814  0.32580783    -0.22900
H2603       H  0.52800445  0.76736820  0.33914659     0.08300
C2604       C  0.49790535  0.78783333  0.37214121     0.04600
C2605       C  0.47258244  0.79371886  0.37183482    -0.20100
C2606       C  0.45447317  0.77512587  0.37040714    -0.12400
C2607       C  0.46191365  0.74987530  0.37002823     0.13300
C2608       C  0.48725555  0.74401346  0.37006800    -0.22800
C2609       C  0.51679852  0.80840823  0.37342475    -0.05900
H2610       H  0.46708606  0.81299101  0.37129237     0.14800
C2611       C  0.44362173  0.72874887  0.36901197    -0.16100
H2612       H  0.49300337  0.72475071  0.36888456     0.09200
H2613       H  0.55950434  0.77102247  0.31816789     0.07000
H2614       H  0.57681099  0.74287530  0.31791811     0.08200
H2615       H  0.59079295  0.77137116  0.32632399     0.07300
H2616       H  0.52252131  0.72901282  0.39963780     0.02100
H2617       H  0.53176434  0.76040327  0.40541874     0.02600
H2618       H  0.55298400  0.73493987  0.40863005     0.06100
H2619       H  0.50786729  0.82693270  0.37480025     0.05100
H2620       H  0.52848154  0.80869468  0.36102803    -0.00700
H2621       H  0.52879768  0.80537345  0.38551854     0.00800
H2622       H  0.44613082  0.71849312  0.35602885     0.04500
H2623       H  0.42411214  0.73507869  0.36985426     0.06400
H2624       H  0.44689905  0.71580046  0.38053251     0.07300
C2625       C  0.68966611  0.97171792  0.25345255    -0.22300
C2626       C  0.70609275  0.99089645  0.25764888     0.09600
C2627       C  0.71809284  0.00359239  0.24344830     0.10000
C2628       C  0.71231404  0.99756400  0.22520837    -0.17200
C2629       C  0.69474805  0.97892592  0.22072233    -0.27700
C2630       C  0.68363432  0.96556023  0.23546771     0.18400
C2631       C  0.70914539  0.99720372  0.27722341     0.12300
C2632       C  0.73710243  0.02331300  0.24757092    -0.12000
H2633       H  0.72149009  0.00794516  0.21468390     0.12600
C2634       C  0.66478389  0.94487629  0.23343901    -0.22900
H2635       H  0.68079404  0.96177485  0.26450936     0.08300
C2636       C  0.69255986  0.01358320  0.28590857     0.04600
C2637       C  0.69000653  0.01268090  0.30492442    -0.20100
C2638       C  0.70276800  0.99485871  0.31549711    -0.12400
C2639       C  0.72249614  0.98159435  0.30689699     0.13300
C2640       C  0.72492523  0.98254526  0.28786846    -0.22800
C2641       C  0.67634487  0.03091232  0.27501028    -0.05900
H2642       H  0.67705575  0.02528897  0.31117568     0.14800
C2643       C  0.74050069  0.96496252  0.31690329    -0.16100
H2644       H  0.73817964  0.97047293  0.28118223     0.09200
H2645       H  0.64780948  0.94977358  0.24116375     0.07000
H2646       H  0.67258050  0.92743780  0.23919088     0.08200
H2647       H  0.65872291  0.94086250  0.21943519     0.07300
H2648       H  0.75249781  0.01507227  0.25560739     0.02100
H2649       H  0.72861160  0.03860801  0.25552928     0.02600
H2650       H  0.74499716  0.03138731  0.23495135     0.06100
H2651       H  0.66408209  0.04220656  0.28387995     0.05100
H2652       H  0.66442818  0.02007215  0.26556906    -0.00700
H2653       H  0.68800978  0.04387880  0.26703102     0.00800
H2654       H  0.73819487  0.94546314  0.31219593     0.04500
H2655       H  0.73838484  0.96531058  0.33183236     0.06400
H2656       H  0.75972646  0.97102290  0.31391236     0.07300
C2657       C  0.68067070  0.88383903  0.36953959    -0.22300
C2658       C  0.66456253  0.87295950  0.35682007     0.09600
C2659       C  0.65403345  0.88772060  0.34297964     0.10000
C2660       C  0.65996645  0.91300965  0.34214154    -0.17200
C2661       C  0.67596693  0.92407837  0.35491970    -0.27700
C2662       C  0.68662590  0.90927288  0.36872566     0.18400
C2663       C  0.65979649  0.84584546  0.35755627     0.12300
C2664       C  0.63710947  0.87668224  0.32876155    -0.12000
H2665       H  0.65199154  0.92433255  0.33141963     0.12600
C2666       C  0.70525919  0.91973404  0.38193368    -0.22900
H2667       H  0.68899981  0.87223352  0.37983977     0.08300
C2668       C  0.67743407  0.82857085  0.35128907     0.04600
C2669       C  0.67144908  0.80321295  0.35098131    -0.20100
C2670       C  0.64768254  0.79468844  0.35578444    -0.12400
C2671       C  0.62986767  0.81227414  0.36191650     0.13300
C2672       C  0.63647147  0.83749983  0.36311272    -0.22800
C2673       C  0.70205756  0.83703233  0.34398298    -0.05900
H2674       H  0.68522005  0.79000424  0.34632315     0.14800
C2675       C  0.60334203  0.80546294  0.36585232    -0.16100
H2676       H  0.62297747  0.85106895  0.36767985     0.09200
H2677       H  0.71233925  0.90513213  0.39124686     0.07000
H2678       H  0.69664999  0.93428725  0.39048941     0.08200
H2679       H  0.72119491  0.92774376  0.37441469     0.07300
H2680       H  0.62021690  0.86909039  0.33528729     0.02100
H2681       H  0.64686727  0.86152690  0.32142356     0.02600
H2682       H  0.63115330  0.89076506  0.31860011     0.06100
H2683       H  0.71365460  0.82115155  0.33942657     0.05100
H2684       H  0.71232826  0.84720208  0.35467603    -0.00700
H2685       H  0.69907202  0.84959032  0.33218812     0.00800
H2686       H  0.60191958  0.79473443  0.37862675     0.04500
H2687       H  0.59550723  0.79488554  0.35428455     0.06400
H2688       H  0.59157053  0.82222591  0.36768468     0.07300
C2689       C  0.59255511  0.98490579  0.37445940    -0.22300
C2690       C  0.58422931  0.00894469  0.37061603     0.09600
C2691       C  0.60127624  0.02713970  0.36486906     0.10000
C2692       C  0.62610489  0.02039286  0.36211484    -0.17200
C2693       C  0.63405939  0.99559013  0.36402984    -0.27700
C2694       C  0.61692733  0.97762640  0.37058931     0.18400
C2695       C  0.55717405  0.01304654  0.36913889     0.12300
C2696       C  0.59296694  0.05322486  0.36052587    -0.12000
H2697       H  0.63908747  0.03429906  0.35732297     0.12600
C2698       C  0.62268613  0.95027540  0.37148425    -0.22900
H2699       H  0.57914076  0.97112539  0.37880391     0.08300
C2700       C  0.54380134  0.00249813  0.35450118     0.04600
C2701       C  0.51852491  0.00742530  0.35282613    -0.20100
C2702       C  0.50627435  0.02314393  0.36506428    -0.12400
C2703       C  0.51942394  0.03344453  0.37989618     0.13300
C2704       C  0.54485635  0.02813816  0.38183298    -0.22800
C2705       C  0.55625906  0.98670596  0.34020477    -0.05900
H2706       H  0.50824599  0.99923623  0.34165666     0.14800
C2707       C  0.50700842  0.05072002  0.39317386    -0.16100
H2708       H  0.55526637  0.03612228  0.39302329     0.09200
H2709       H  0.62865140  0.94396122  0.35789176     0.07000
H2710       H  0.60615516  0.93906033  0.37515007     0.08200
H2711       H  0.63686864  0.94625759  0.38194595     0.07300
H2712       H  0.58503886  0.06202652  0.37286571     0.02100
H2713       H  0.57868936  0.05279405  0.34961997     0.02600
H2714       H  0.60858011  0.06497338  0.35576730     0.06100
H2715       H  0.54317661  0.98117041  0.32923360     0.05100
H2716       H  0.56364868  0.96941230  0.34639284    -0.00700
H2717       H  0.57164544  0.99728226  0.33386306     0.00800
H2718       H  0.49210413  0.04078546  0.40053997     0.04500
H2719       H  0.49894077  0.06682637  0.38579288     0.06400
H2720       H  0.52031438  0.05793792  0.40345061     0.07300
C2721       C  0.85155598  0.11428917  0.13614096    -0.22300
C2722       C  0.83518850  0.11171882  0.12140231     0.09600
C2723       C  0.83824164  0.12677579  0.10587638     0.10000
C2724       C  0.85699365  0.14478822  0.10571537    -0.17200
C2725       C  0.87279795  0.14817234  0.12070704    -0.27700
C2726       C  0.87033004  0.13244619  0.13606080     0.18400
C2727       C  0.81347958  0.09499853  0.12305296     0.12300
C2728       C  0.82133166  0.12418970  0.08963402    -0.12000
H2729       H  0.85892268  0.15682948  0.09396994     0.12600
C2730       C  0.88594121  0.13515231  0.15298194    -0.22900
H2731       H  0.84900007  0.10275999  0.14808803     0.08300
C2732       C  0.81476061  0.06951187  0.11871489     0.04600
C2733       C  0.79308587  0.05504193  0.11931724    -0.20100
C2734       C  0.77003119  0.06559763  0.12384683    -0.12400
C2735       C  0.76897441  0.09125759  0.12841530     0.13300
C2736       C  0.79077133  0.10547012  0.12809335    -0.22800
C2737       C  0.83888649  0.05779056  0.11308614    -0.05900
H2738       H  0.79409226  0.03550195  0.11576775     0.14800
C2739       C  0.74514663  0.10401730  0.13367251    -0.16100
H2740       H  0.79006063  0.12512837  0.13136636     0.09200
H2741       H  0.89614865  0.11755379  0.15552092     0.07000
H2742       H  0.87375439  0.13901085  0.16480202     0.08200
H2743       H  0.89961584  0.15042364  0.15216753     0.07300
H2744       H  0.80193315  0.12825826  0.09363457     0.02100
H2745       H  0.82241996  0.10493870  0.08422308     0.02600
H2746       H  0.82648684  0.13720543  0.07854401     0.06100
H2747       H  0.83667000  0.03769167  0.10998218     0.05100
H2748       H  0.85267442  0.05969662  0.12423478    -0.00700
H2749       H  0.84604597  0.06717391  0.10071935     0.00800
H2750       H  0.74821511  0.12375104  0.13755537     0.04500
H2751       H  0.73673367  0.09443526  0.14551947     0.06400
H2752       H  0.73204388  0.10394775  0.12200786     0.07300
C2753       C  0.36800957  0.17582270  0.11397942    -0.22300
C2754       C  0.34925394  0.17517344  0.12707892     0.09600
C2755       C  0.34738319  0.15457886  0.13887668     0.10000
C2756       C  0.36481740  0.13528070  0.13757494    -0.17200
C2757       C  0.38407345  0.13623305  0.12480347    -0.27700
C2758       C  0.38531843  0.15649938  0.11251504     0.18400
C2759       C  0.33165687  0.19623631  0.12805221     0.12300
C2760       C  0.32731511  0.15326234  0.15304104    -0.12000
H2761       H  0.36375706  0.11963009  0.14685154     0.12600
C2762       C  0.40386080  0.15807061  0.09723753    -0.22900
H2763       H  0.36897760  0.19146498  0.10468429     0.08300
C2764       C  0.33828364  0.21895599  0.13631135     0.04600
C2765       C  0.32107356  0.23851780  0.13668979    -0.20100
C2766       C  0.29725272  0.23579427  0.12917780    -0.12400
C2767       C  0.29072556  0.21287162  0.12079650     0.13300
C2768       C  0.30810687  0.19346067  0.12032569    -0.22800
C2769       C  0.36341311  0.22241135  0.14491658    -0.05900
H2770       H  0.32621891  0.25597466  0.14302468     0.14800
C2771       C  0.26582603  0.20867111  0.11193157    -0.16100
H2772       H  0.30337117  0.17596174  0.11386683     0.09200
H2773       H  0.41605822  0.17444587  0.09935939     0.07000
H2774       H  0.39384836  0.16034986  0.08412140     0.08200
H2775       H  0.41558258  0.14130365  0.09587340     0.07300
H2776       H  0.30885510  0.15328899  0.14634845     0.02100
H2777       H  0.32871487  0.16955328  0.16227839     0.02600
H2778       H  0.32880449  0.13610954  0.16138849     0.06100
H2779       H  0.36545148  0.24117614  0.15106487     0.05100
H2780       H  0.37809659  0.22015493  0.13450457    -0.00700
H2781       H  0.36614725  0.20836278  0.15580738     0.00800
H2782       H  0.26459114  0.19005391  0.10543117     0.04500
H2783       H  0.26257067  0.22280094  0.10118969     0.06400
H2784       H  0.25094688  0.20972092  0.12229046     0.07300
C2785       C  0.54978349  0.05811459  0.13337143    -0.22300
C2786       C  0.56389136  0.07852029  0.12781973     0.09600
C2787       C  0.55210866  0.10069587  0.12238853     0.10000
C2788       C  0.52610077  0.10162417  0.12196868    -0.17200
C2789       C  0.51191561  0.08059070  0.12641065    -0.27700
C2790       C  0.52392499  0.05875068  0.13267595     0.18400
C2791       C  0.59067377  0.07449468  0.12551198     0.12300
C2792       C  0.56699119  0.12301584  0.11665966    -0.12000
H2793       H  0.51687028  0.11843717  0.11746853     0.12600
C2794       C  0.50977707  0.03601784  0.13873978    -0.22900
H2795       H  0.55915211  0.04122826  0.13753594     0.08300
C2796       C  0.60749472  0.07686298  0.14008847     0.04600
C2797       C  0.63175778  0.06792551  0.13801221    -0.20100
C2798       C  0.63922955  0.05636198  0.12178282    -0.12400
C2799       C  0.62257623  0.05523254  0.10689926     0.13300
C2800       C  0.59851256  0.06439995  0.10897597    -0.22800
C2801       C  0.59965394  0.08835148  0.15784057    -0.05900
H2802       H  0.64458338  0.06896593  0.14937030     0.14800
C2803       C  0.62996921  0.04461905  0.08875801    -0.16100
H2804       H  0.58531547  0.06271670  0.09787582     0.09200
H2805       H  0.52226077  0.02157215  0.14446175     0.07000
H2806       H  0.49996395  0.02747052  0.12702778     0.08200
H2807       H  0.49621600  0.04124769  0.14941123     0.07300
H2808       H  0.57870721  0.11818535  0.10478110     0.02100
H2809       H  0.57907621  0.12913638  0.12804862     0.02600
H2810       H  0.55487520  0.13885514  0.11277132     0.06100
H2811       H  0.61489117  0.08812728  0.16802686     0.05100
H2812       H  0.58370600  0.07804815  0.16354128    -0.00700
H2813       H  0.59403726  0.10795508  0.15557608     0.00800
H2814       H  0.61507457  0.04678984  0.07841753     0.04500
H2815       H  0.63382864  0.02443936  0.09005089     0.06400
H2816       H  0.64661255  0.05455328  0.08372221     0.07300
C2817       C  0.83051716  0.07139882  0.90499231    -0.22300
C2818       C  0.83014216  0.09530320  0.91262209     0.09600
C2819       C  0.80855376  0.10389233  0.92136257     0.10000
C2820       C  0.78768230  0.08853354  0.92212940    -0.17200
C2821       C  0.78764814  0.06468308  0.91433418    -0.27700
C2822       C  0.80949201  0.05587104  0.90576036     0.18400
C2823       C  0.85173467  0.11207831  0.91064474     0.12300
C2824       C  0.80743970  0.12949114  0.92973082    -0.12000
H2825       H  0.77114461  0.09535413  0.92883678     0.12600
C2826       C  0.81058602  0.03062746  0.89689826    -0.22900
H2827       H  0.84717219  0.06506965  0.89819826     0.08300
C2828       C  0.87016321  0.11383827  0.92425064     0.04600
C2829       C  0.88654962  0.13419184  0.92414874    -0.20100
C2830       C  0.88446619  0.15285993  0.91089222    -0.12400
C2831       C  0.86748350  0.14977285  0.89635679     0.13300
C2832       C  0.85130225  0.12941384  0.89644693    -0.22800
C2833       C  0.87160898  0.09495304  0.93932744    -0.05900
H2834       H  0.89977951  0.13645122  0.93515002     0.14800
C2835       C  0.86565859  0.16776686  0.88067870    -0.16100
H2836       H  0.83730459  0.12781271  0.88589849     0.09200
H2837       H  0.80788770  0.01590208  0.90727846     0.07000
H2838       H  0.82876725  0.02727503  0.89028576     0.08200
H2839       H  0.79597347  0.02915072  0.88628523     0.07300
H2840       H  0.81048589  0.14382369  0.91910809     0.02100
H2841       H  0.82194501  0.13131398  0.94038297     0.02600
H2842       H  0.78919652  0.13319934  0.93614185     0.06100
H2843       H  0.88701498  0.09907725  0.94891381     0.05100
H2844       H  0.87474079  0.07618486  0.93345613    -0.00700
H2845       H  0.85403299  0.09486326  0.94713734     0.00800
H2846       H  0.86809474  0.15751520  0.86768490     0.04500
H2847       H  0.88001694  0.18248280  0.88111210     0.06400
H2848       H  0.84711829  0.17672278  0.88066827     0.07300
C2849       C  0.70027278  0.99771196  0.03620359    -0.22300
C2850       C  0.72394921  0.99256417  0.02939494     0.09600
C2851       C  0.74363874  0.98844930  0.04181341     0.10000
C2852       C  0.73943174  0.99103109  0.06067510    -0.17200
C2853       C  0.71604521  0.99788829  0.06734485    -0.27700
C2854       C  0.69606038  0.00027571  0.05495190     0.18400
C2855       C  0.72792404  0.99445355  0.00932828     0.12300
C2856       C  0.76908185  0.98150926  0.03515913    -0.12000
H2857       H  0.75472044  0.98894571  0.07014673     0.12600
C2858       C  0.67020088  0.00576766  0.06142330    -0.22900
H2859       H  0.68517640  0.00085103  0.02671921     0.08300
C2860       C  0.71720952  0.97759399  0.99677939     0.04600
C2861       C  0.71889968  0.98239565  0.97793587    -0.20100
C2862       C  0.73108348  0.00366714  0.97135759    -0.12400
C2863       C  0.74334924  0.01946577  0.98394971     0.13300
C2864       C  0.74106125  0.01499595  0.00268006    -0.22800
C2865       C  0.70386962  0.95466952  0.00326112    -0.05900
H2866       H  0.70967237  0.97013036  0.96837395     0.14800
C2867       C  0.75940360  0.04103063  0.97820199    -0.16100
H2868       H  0.74941236  0.02790801  0.01223240     0.09200
H2869       H  0.65653486  0.00530531  0.05010271     0.07000
H2870       H  0.66962281  0.02459565  0.06746427     0.08200
H2871       H  0.66452197  0.99175558  0.07169442     0.07300
H2872       H  0.77684135  0.99664305  0.02666405     0.02100
H2873       H  0.76794453  0.96420107  0.02695059     0.02600
H2874       H  0.78210582  0.97819975  0.04663082     0.06100
H2875       H  0.69727632  0.94309417  0.99170281     0.05100
H2876       H  0.68750511  0.95992957  0.01150506    -0.00700
H2877       H  0.71660752  0.94320646  0.01167774     0.00800
H2878       H  0.75075453  0.05877826  0.98258770     0.04500
H2879       H  0.76274506  0.04167973  0.96335127     0.06400
H2880       H  0.77788185  0.03933220  0.98477727     0.07300
C2881       C  0.39012243  0.19511842  0.90648886    -0.22300
C2882       C  0.36636028  0.19196553  0.91377262     0.09600
C2883       C  0.35982262  0.16904676  0.92173490     0.10000
C2884       C  0.37701084  0.14953900  0.92181836    -0.17200
C2885       C  0.40087596  0.15246812  0.91453253    -0.27700
C2886       C  0.40763931  0.17575566  0.90695583     0.18400
C2887       C  0.34838095  0.21274035  0.91295860     0.12300
C2888       C  0.33489474  0.16531459  0.93054328    -0.12000
H2889       H  0.37183571  0.13194039  0.92789916     0.12600
C2890       C  0.43296634  0.18032707  0.89906176    -0.22900
H2891       H  0.39493602  0.21283370  0.90042118     0.08300
C2892       C  0.35046999  0.23362838  0.92448557     0.04600
C2893       C  0.33161740  0.25157933  0.92439260    -0.20100
C2894       C  0.31057469  0.24884726  0.91331087    -0.12400
C2895       C  0.30903238  0.22845652  0.90117072     0.13300
C2896       C  0.32801359  0.21067112  0.90118258    -0.22800
C2897       C  0.37199038  0.23645604  0.93741860    -0.05900
H2898       H  0.33278870  0.26728664  0.93361744     0.14800
C2899       C  0.28808731  0.22499668  0.88777827    -0.16100
H2900       H  0.32674022  0.19478512  0.89212574     0.09200
H2901       H  0.44726350  0.17862198  0.90987252     0.07000
H2902       H  0.43456438  0.19928587  0.89318063     0.08200
H2903       H  0.43671284  0.16670056  0.88805211     0.07300
H2904       H  0.31990799  0.16726070  0.92028656     0.02100
H2905       H  0.33223229  0.17935383  0.94145356     0.02600
H2906       H  0.33321286  0.14656117  0.93674402     0.06100
H2907       H  0.37029797  0.25352515  0.94584812     0.05100
H2908       H  0.38955889  0.23771140  0.92967438    -0.00700
H2909       H  0.37281487  0.22019351  0.94670448     0.00800
H2910       H  0.29578124  0.22314035  0.87384593     0.04500
H2911       H  0.27496223  0.24080711  0.88744379     0.06400
H2912       H  0.27771582  0.20777918  0.89114980     0.07300
C2913       C  0.44963567  0.07372414  0.00457739    -0.22300
C2914       C  0.42673226  0.06455564  0.01043835     0.09600
C2915       C  0.40806333  0.05959671  0.99742512     0.10000
C2916       C  0.41269045  0.06429266  0.97884931    -0.17200
C2917       C  0.43544436  0.07424762  0.97299610    -0.27700
C2918       C  0.45432039  0.07856931  0.98613197     0.18400
C2919       C  0.42265965  0.06206330  0.03041942     0.12300
C2920       C  0.38335454  0.04930282  0.00315245    -0.12000
H2921       H  0.39824680  0.06071875  0.96891282     0.12600
C2922       C  0.47969975  0.08788423  0.98094073    -0.22900
H2923       H  0.46387078  0.07754294  0.01464052     0.08300
C2924       C  0.43480294  0.04361003  0.04087657     0.04600
C2925       C  0.43424475  0.04501622  0.06003011    -0.20100
C2926       C  0.42195860  0.06456242  0.06889488    -0.12400
C2927       C  0.40834461  0.08194262  0.05842038     0.13300
C2928       C  0.40895894  0.08053145  0.03935136    -0.22800
C2929       C  0.44878149  0.02280002  0.03179891    -0.05900
H2930       H  0.44465094  0.03168760  0.06806355     0.14800
C2931       C  0.39327126  0.10246430  0.06694860    -0.16100
H2932       H  0.39950639  0.09462926  0.03137534     0.09200
H2933       H  0.49247982  0.08845403  0.99280666     0.07000
H2934       H  0.47841181  0.10708530  0.97550236     0.08200
H2935       H  0.48799777  0.07535854  0.97059376     0.07300
H2936       H  0.37395852  0.06258518  0.01241126     0.02100
H2937       H  0.38610175  0.03133677  0.01032366     0.02600
H2938       H  0.37099547  0.04600124  0.99128649     0.06100
H2939       H  0.45678940  0.00969615  0.04190632     0.05100
H2940       H  0.46420979  0.03041427  0.02356254    -0.00700
H2941       H  0.43603340  0.01220568  0.02279549     0.00800
H2942       H  0.40084039  0.12078169  0.06277819     0.04500
H2943       H  0.39305669  0.10160462  0.08201611     0.06400
H2944       H  0.37376674  0.10105653  0.06220928     0.07300
C2945       C  0.56052585  0.05831237  0.91563310    -0.22300
C2946       C  0.57554960  0.07948429  0.91611442     0.09600
C2947       C  0.56457389  0.10327909  0.91570847     0.10000
C2948       C  0.53861037  0.10528838  0.91580055    -0.17200
C2949       C  0.52341779  0.08404655  0.91643612    -0.27700
C2950       C  0.53466914  0.06013066  0.91601404     0.18400
C2951       C  0.60265445  0.07572635  0.91772827     0.12300
C2952       C  0.58018217  0.12648426  0.91563254    -0.12000
H2953       H  0.53018749  0.12358637  0.91577778     0.12600
C2954       C  0.51994127  0.03625938  0.91610818    -0.22900
H2955       H  0.56923840  0.04013309  0.91550635     0.08300
C2956       C  0.61308912  0.06545973  0.93368698     0.04600
C2957       C  0.63799696  0.05813824  0.93367066    -0.20100
C2958       C  0.65290963  0.06138672  0.91825295    -0.12400
C2959       C  0.64290348  0.07329042  0.90270233     0.13300
C2960       C  0.61773934  0.08002935  0.90256659    -0.22800
C2961       C  0.59793416  0.06208364  0.95071862    -0.05900
H2962       H  0.64576813  0.04933769  0.94566391     0.14800
C2963       C  0.65820399  0.07780621  0.88591793    -0.16100
H2964       H  0.60955146  0.08781816  0.89035475     0.09200
H2965       H  0.53202891  0.01960896  0.91491963     0.07000
H2966       H  0.50687352  0.03591693  0.90443569     0.08200
H2967       H  0.50958354  0.03455177  0.92907085     0.07300
H2968       H  0.59184729  0.12693152  0.90323219     0.02100
H2969       H  0.59229444  0.12681465  0.92786204     0.02600
H2970       H  0.56859871  0.14356580  0.91571894     0.06100
H2971       H  0.60930723  0.05475085  0.96213562     0.05100
H2972       H  0.58261240  0.04875040  0.94826966    -0.00700
H2973       H  0.59009668  0.08027132  0.95497574     0.00800
H2974       H  0.64716805  0.08673504  0.87494180     0.04500
H2975       H  0.66546648  0.05992778  0.88058600     0.06400
H2976       H  0.67389273  0.09036545  0.88925221     0.07300
C2977       C  0.69492450  0.83145250  0.87056681    -0.22300
C2978       C  0.67704744  0.84897867  0.87568262     0.09600
C2979       C  0.65349496  0.84085135  0.88144351     0.10000
C2980       C  0.64731120  0.81563400  0.87979983    -0.17200
C2981       C  0.66422374  0.79847292  0.87253960    -0.27700
C2982       C  0.68895228  0.80612245  0.86933674     0.18400
C2983       C  0.68129031  0.87540761  0.87113957     0.12300
C2984       C  0.63448503  0.85903860  0.88839012    -0.12000
H2985       H  0.62850151  0.80983005  0.88267684     0.12600
C2986       C  0.70925420  0.78816688  0.86431540    -0.22900
H2987       H  0.71320701  0.83770525  0.86654233     0.08300
C2988       C  0.69600387  0.89143602  0.88182657     0.04600
C2989       C  0.69893303  0.91636324  0.87636871    -0.20100
C2990       C  0.68753277  0.92532231  0.86044448    -0.12400
C2991       C  0.67246966  0.90916666  0.84999643     0.13300
C2992       C  0.66983094  0.88440487  0.85537883    -0.22800
C2993       C  0.70813984  0.88231746  0.89902262    -0.05900
H2994       H  0.71014950  0.92888661  0.88450111     0.14800
C2995       C  0.65825387  0.91797312  0.83357080    -0.16100
H2996       H  0.65846377  0.87189605  0.84732854     0.09200
H2997       H  0.72494862  0.79027766  0.87399519     0.07000
H2998       H  0.71592295  0.79222450  0.85035270     0.08200
H2999       H  0.70314898  0.76849953  0.86500820     0.07300
H3000       H  0.62954877  0.87262173  0.87761660     0.02100
H3001       H  0.64212987  0.86917188  0.90031556     0.02600
H3002       H  0.61721562  0.84950785  0.89269706     0.06100
H3003       H  0.71874577  0.89732700  0.90591451     0.05100
H3004       H  0.72113286  0.86692567  0.89582418    -0.00700
H3005       H  0.69376778  0.87545530  0.90856293     0.00800
H3006       H  0.67127943  0.92273677  0.82251374     0.04500
H3007       H  0.64674117  0.93433234  0.83724014     0.06400
H3008       H  0.64564598  0.90337377  0.82819631     0.07300
C3009       C  0.60241359  0.00460992  0.88078526    -0.22300
C3010       C  0.58542034  0.00170581  0.86648932     0.09600
C3011       C  0.59399934  0.99395135  0.84928225     0.10000
C3012       C  0.61916084  0.98841244  0.84695798    -0.17200
C3013       C  0.63654597  0.99158637  0.86109045    -0.27700
C3014       C  0.62788710  0.99970982  0.87834432     0.18400
C3015       C  0.55887583  0.00806177  0.86925421     0.12300
C3016       C  0.57685010  0.99267824  0.83305268    -0.12000
H3017       H  0.62539144  0.98209378  0.83374031     0.12600
C3018       C  0.64513966  0.00441470  0.89406442    -0.22900
H3019       H  0.59570718  0.01101541  0.89386132     0.08300
C3020       C  0.54051927  0.98942366  0.87051216     0.04600
C3021       C  0.51541392  0.99600777  0.86872462    -0.20100
C3022       C  0.50828896  0.02086628  0.86633732    -0.12400
C3023       C  0.52654052  0.03973110  0.86712933     0.13300
C3024       C  0.55167619  0.03309311  0.86847295    -0.22800
C3025       C  0.54746520  0.96258861  0.87350686    -0.05900
H3026       H  0.50152181  0.98156922  0.86815379     0.14800
C3027       C  0.51953481  0.06682019  0.86629343    -0.16100
H3028       H  0.56582182  0.04739503  0.86803169     0.09200
H3029       H  0.65211677  0.98663575  0.89964309     0.07000
H3030       H  0.63551630  0.01400624  0.90540400     0.08200
H3031       H  0.66075805  0.01632990  0.88965425     0.07300
H3032       H  0.56853314  0.01126885  0.83058365     0.02100
H3033       H  0.56181626  0.97904941  0.83543670     0.02600
H3034       H  0.58679050  0.98698265  0.82050913     0.06100
H3035       H  0.53083254  0.95049034  0.87440029     0.05100
H3036       H  0.55796838  0.96087141  0.88645448    -0.00700
H3037       H  0.55916794  0.95565334  0.86222264     0.00800
H3038       H  0.53593051  0.07908415  0.86805257     0.04500
H3039       H  0.50614966  0.07115887  0.87729160     0.06400
H3040       H  0.51098993  0.07113291  0.85295698     0.07300
C3041       C  0.49775658  0.80606510  0.87498258    -0.22300
C3042       C  0.50749388  0.78223253  0.87216838     0.09600
C3043       C  0.49109733  0.76231163  0.86845082     0.10000
C3044       C  0.46569971  0.76722487  0.86636649    -0.17200
C3045       C  0.45615902  0.79151700  0.86747252    -0.27700
C3046       C  0.47246868  0.81116924  0.87236657     0.18400
C3047       C  0.53488671  0.77940976  0.87126341     0.12300
C3048       C  0.49961968  0.73584085  0.86574954    -0.12000
H3049       H  0.45331752  0.75198243  0.86306600     0.12600
C3050       C  0.46426663  0.83788684  0.87351888    -0.22900
H3051       H  0.51037847  0.82109769  0.87827732     0.08300
C3052       C  0.54855769  0.79001707  0.85687179     0.04600
C3053       C  0.57397853  0.78516210  0.85558136    -0.20100
C3054       C  0.58609946  0.76918063  0.86784867    -0.12400
C3055       C  0.57263249  0.75946082  0.88274494     0.13300
C3056       C  0.54726829  0.76508898  0.88436466    -0.22800
C3057       C  0.53621630  0.80532041  0.84222285    -0.05900
H3058       H  0.58428134  0.79292315  0.84430156     0.14800
C3059       C  0.58421213  0.74202647  0.89633052    -0.16100
H3060       H  0.53663903  0.75730212  0.89536570     0.09200
H3061       H  0.48012578  0.85070489  0.87574942     0.07000
H3062       H  0.45146606  0.84071929  0.88504851     0.08200
H3063       H  0.45541299  0.84336097  0.86059889     0.07300
H3064       H  0.49100983  0.72378631  0.87624463     0.02100
H3065       H  0.51994067  0.73349120  0.86661470     0.02600
H3066       H  0.49373042  0.72924895  0.85208884     0.06100
H3067       H  0.54947202  0.81080552  0.83141350     0.05100
H3068       H  0.52846258  0.82263953  0.84810044    -0.00700
H3069       H  0.52112081  0.79439527  0.83574658     0.00800
H3070       H  0.57022932  0.73412586  0.90575879     0.04500
H3071       H  0.59803320  0.75206482  0.90472503     0.06400
H3072       H  0.59323878  0.72636671  0.88915763     0.07300
C3073       C  0.42008272  0.89760204  0.85405078    -0.22300
C3074       C  0.41170260  0.90760765  0.87049373     0.09600
C3075       C  0.39867762  0.89249850  0.88283823     0.10000
C3076       C  0.39514456  0.86722165  0.87869656    -0.17200
C3077       C  0.40354556  0.85709993  0.86219530    -0.27700
C3078       C  0.41587266  0.87266640  0.84952880     0.18400
C3079       C  0.41665952  0.93423723  0.87383378     0.12300
C3080       C  0.38858740  0.90306317  0.90026823    -0.12000
H3081       H  0.38566705  0.85531050  0.88831946     0.12600
C3082       C  0.42532245  0.86334038  0.83142885    -0.22900
H3083       H  0.42982728  0.90957572  0.84460197     0.08300
C3084       C  0.43997899  0.94232449  0.88020387     0.04600
C3085       C  0.44659559  0.96740900  0.87819406    -0.20100
C3086       C  0.43060769  0.98426642  0.86954951    -0.12400
C3087       C  0.40599103  0.97674939  0.86554231     0.13300
C3088       C  0.39949285  0.95166206  0.86740975    -0.22800
C3089       C  0.45831456  0.92421967  0.88819468    -0.05900
H3090       H  0.46496107  0.97333169  0.88213991     0.14800
C3091       C  0.38625320  0.99457327  0.85911561    -0.16100
H3092       H  0.38132962  0.94544721  0.86299267     0.09200
H3093       H  0.43755464  0.87720181  0.82476178     0.07000
H3094       H  0.40960010  0.85998493  0.82203130     0.08200
H3095       H  0.43614768  0.84595528  0.83308982     0.07300
H3096       H  0.37525313  0.91821220  0.89713987     0.02100
H3097       H  0.40396029  0.91066114  0.90864622     0.02600
H3098       H  0.37879278  0.88870582  0.90838520     0.06100
H3099       H  0.47570394  0.93362438  0.89248095     0.05100
H3100       H  0.46312677  0.90978685  0.87799243    -0.00700
H3101       H  0.45011641  0.91510760  0.90031247     0.00800
H3102       H  0.38052362  0.98972847  0.84503106     0.04500
H3103       H  0.39243518  0.01422632  0.85946655     0.06400
H3104       H  0.36988039  0.99317468  0.86817479     0.07300
C3105       C  0.72369422  0.02188673  0.74876974    -0.22300
C3106       C  0.72975302  0.00130257  0.75962179     0.09600
C3107       C  0.73857866  0.97954248  0.75107109     0.10000
C3108       C  0.73764631  0.97762103  0.73200558    -0.17200
C3109       C  0.72679114  0.99643924  0.72120821    -0.27700
C3110       C  0.72324403  0.02003282  0.72961960     0.18400
C3111       C  0.72211366  0.00075163  0.77912543     0.12300
C3112       C  0.74766101  0.95777548  0.76214730    -0.12000
H3113       H  0.74359897  0.96043678  0.72570435     0.12600
C3114       C  0.71955652  0.04360381  0.71889349    -0.22900
H3115       H  0.71831904  0.03917120  0.75524347     0.08300
C3116       C  0.73647325  0.01028935  0.79357923     0.04600
C3117       C  0.72862139  0.00664575  0.81177438    -0.20100
C3118       C  0.70667144  0.99338968  0.81596298    -0.12400
C3119       C  0.69216611  0.98442097  0.80093206     0.13300
C3120       C  0.69999192  0.98859967  0.78305747    -0.22800
C3121       C  0.76025343  0.02386399  0.78974779    -0.05900
H3122       H  0.74025845  0.01366666  0.82256820     0.14800
C3123       C  0.66838356  0.96972547  0.80247202    -0.16100
H3124       H  0.68896035  0.98139257  0.77185555     0.09200
H3125       H  0.73390758  0.05735023  0.72293137     0.07000
H3126       H  0.70101659  0.05160456  0.72180154     0.08200
H3127       H  0.72153626  0.04058301  0.70404566     0.07300
H3128       H  0.73253226  0.95055820  0.77086838     0.02100
H3129       H  0.76336349  0.96376108  0.77089899     0.02600
H3130       H  0.75415936  0.94228433  0.75336683     0.06100
H3131       H  0.76947752  0.03012878  0.80247365     0.05100
H3132       H  0.75635537  0.04049331  0.78125789    -0.00700
H3133       H  0.77319451  0.01142516  0.78234278     0.00800
H3134       H  0.65306519  0.98028109  0.79594721     0.04500
H3135       H  0.66257268  0.96531744  0.81637531     0.06400
H3136       H  0.67051522  0.95169988  0.79525090     0.07300
C3137       C  0.66304787  0.72994604  0.75192567    -0.22300
C3138       C  0.64323752  0.72367093  0.76321918     0.09600
C3139       C  0.62015252  0.71792550  0.75532442     0.10000
C3140       C  0.61684583  0.72059263  0.73643668    -0.17200
C3141       C  0.63569702  0.73039958  0.72516370    -0.27700
C3142       C  0.65980924  0.73317415  0.73307378     0.18400
C3143       C  0.64554444  0.72840280  0.78308243     0.12300
C3144       C  0.59855016  0.71024114  0.76701191    -0.12000
H3145       H  0.59898634  0.71587580  0.73099756     0.12600
C3146       C  0.68258493  0.74099562  0.72264233    -0.22900
H3147       H  0.68088997  0.73399935  0.75805214     0.08300
C3148       C  0.65281119  0.71020439  0.79578303     0.04600
C3149       C  0.65285520  0.71603461  0.81451650    -0.20100
C3150       C  0.64590339  0.73984543  0.82093999    -0.12400
C3151       C  0.64010852  0.75853297  0.80763758     0.13300
C3152       C  0.63981998  0.75227720  0.78913198    -0.22800
C3153       C  0.66035822  0.68465502  0.78952200    -0.05900
H3154       H  0.65799351  0.70156133  0.82395294     0.14800
C3155       C  0.63389337  0.78534468  0.81225531    -0.16100
H3156       H  0.63479148  0.76620249  0.77909496     0.09200
H3157       H  0.69720108  0.72662734  0.72429424     0.07000
H3158       H  0.68962380  0.75887351  0.72819213     0.08200
H3159       H  0.67961686  0.74352761  0.70792281     0.07300
H3160       H  0.59411012  0.72523440  0.77687444     0.02100
H3161       H  0.60326556  0.69302375  0.77458419     0.02600
H3162       H  0.58166900  0.70653645  0.75877492     0.06100
H3163       H  0.66567523  0.67253124  0.80112431     0.05100
H3164       H  0.67649330  0.68613423  0.78024730    -0.00700
H3165       H  0.64477364  0.67566831  0.78216116     0.00800
H3166       H  0.64996103  0.79491863  0.81843656     0.04500
H3167       H  0.61766229  0.78675812  0.82130233     0.06400
H3168       H  0.62910947  0.79628894  0.79992221     0.07300
C3169       C  0.63962411  0.84916910  0.69648173    -0.22300
C3170       C  0.65377733  0.85603591  0.68138315     0.09600
C3171       C  0.65854166  0.83832214  0.66763105     0.10000
C3172       C  0.65058756  0.81362903  0.66995534    -0.17200
C3173       C  0.63750756  0.80642178  0.68554043    -0.27700
C3174       C  0.63068502  0.82486298  0.69846515     0.18400
C3175       C  0.66466027  0.88139045  0.68093683     0.12300
C3176       C  0.67189659  0.84548474  0.65049489    -0.12000
H3177       H  0.65528335  0.79974092  0.65983097     0.12600
C3178       C  0.61334660  0.82001601  0.71415123    -0.22900
H3179       H  0.63546138  0.86295727  0.70682647     0.08300
C3180       C  0.65017369  0.90279833  0.67759468     0.04600
C3181       C  0.66132596  0.92640666  0.67847688    -0.20100
C3182       C  0.68646558  0.92905580  0.68301768    -0.12400
C3183       C  0.70107665  0.90754606  0.68596208     0.13300
C3184       C  0.68990812  0.88401469  0.68498122    -0.22800
C3185       C  0.62296191  0.90074089  0.67327614    -0.05900
H3186       H  0.65017941  0.94291543  0.67625605     0.14800
C3187       C  0.72851539  0.90922736  0.68977207    -0.16100
H3188       H  0.70079789  0.86749515  0.68776412     0.41200
H3189       H  0.59789835  0.83366519  0.71371466     0.07000
H3190       H  0.62347022  0.82223031  0.72721996     0.08200
H3191       H  0.60470851  0.80135515  0.71372208     0.07300
H3192       H  0.67354102  0.82949519  0.64100987     0.02100
H3193       H  0.66155723  0.86055095  0.64346886     0.02600
H3194       H  0.69080158  0.85208632  0.65374940     0.06100
H3195       H  0.61453021  0.91924598  0.67063000     0.05100
H3196       H  0.61301819  0.89219308  0.68489071    -0.00700
H3197       H  0.62030757  0.88903114  0.66098020     0.00800
H3198       H  0.73201944  0.91812933  0.70311311     0.04500
H3199       H  0.73766429  0.92021744  0.67892766     0.06400
H3200       H  0.73731621  0.89057992  0.69026419     0.07300
C3201       C  0.46490080  0.02252983  0.75494997    -0.22300
C3202       C  0.45247049  0.04401841  0.76042198     0.09600
C3203       C  0.44413816  0.06093693  0.74715369     0.10000
C3204       C  0.44791899  0.05568056  0.72856608    -0.17200
C3205       C  0.46001805  0.03374892  0.72272272    -0.27700
C3206       C  0.46901953  0.01707242  0.73650332     0.18400
C3207       C  0.44795938  0.04765402  0.78022597     0.12300
C3208       C  0.43108531  0.08449798  0.75267804    -0.12000
H3209       H  0.44144131  0.06914231  0.71881462     0.12600
C3210       C  0.48320837  0.99333804  0.73244181    -0.22900
H3211       H  0.47135473  0.00977206  0.76536803     0.08300
C3212       C  0.42889438  0.03472872  0.78919899     0.04600
C3213       C  0.42765111  0.03538570  0.80826941    -0.20100
C3214       C  0.44612158  0.04717843  0.81887621    -0.12400
C3215       C  0.46273077  0.06339508  0.80957547     0.13300
C3216       C  0.46390114  0.06279627  0.79043216    -0.22800
C3217       C  0.41030912  0.01951107  0.77865090    -0.05900
H3218       H  0.41245266  0.02582146  0.81471103     0.14800
C3219       C  0.47977270  0.08129683  0.81920907    -0.16100
H3220       H  0.47782684  0.07371684  0.78344668     0.09200
H3221       H  0.47184659  0.97995070  0.72464179     0.07000
H3222       H  0.48875401  0.98350310  0.74510066     0.08200
H3223       H  0.50060523  0.99727640  0.72509211     0.07300
H3224       H  0.44357795  0.09597833  0.76127873     0.02100
H3225       H  0.41415303  0.07987555  0.76052383     0.02600
H3226       H  0.42549911  0.09577356  0.74069666     0.06100
H3227       H  0.39639510  0.01073144  0.78771184     0.05100
H3228       H  0.41992645  0.00445251  0.77111774    -0.00700
H3229       H  0.40034243  0.03160716  0.76882484     0.00800
H3230       H  0.49936225  0.07600584  0.81671333     0.04500
H3231       H  0.47650844  0.08210715  0.83402754     0.06400
H3232       H  0.47664852  0.10035166  0.81384944     0.07300
C3233       C  0.55978473  0.98986738  0.67652030    -0.22300
C3234       C  0.57404406  0.01026110  0.67099154     0.09600
C3235       C  0.56206433  0.03265341  0.66603833     0.10000
C3236       C  0.53612221  0.03433307  0.66755662    -0.17200
C3237       C  0.52224653  0.01459430  0.67474520    -0.27700
C3238       C  0.53432980  0.99216661  0.67951163     0.18400
C3239       C  0.60129968  0.00863359  0.67364090     0.12300
C3240       C  0.57666070  0.05518300  0.66031678    -0.12000
H3241       H  0.52684806  0.05170611  0.66440997     0.12600
C3242       C  0.52157600  0.97100650  0.68918440    -0.22900
H3243       H  0.56902843  0.97270173  0.68030470     0.08300
C3244       C  0.61126169  0.00589160  0.69131386     0.04600
C3245       C  0.63666882  0.00186094  0.69344520    -0.20100
C3246       C  0.65297907  0.00200531  0.67853713    -0.12400
C3247       C  0.64319103  0.00662831  0.66094042     0.13300
C3248       C  0.61736691  0.00908896  0.65865145    -0.22800
C3249       C  0.59524787  0.00757725  0.70810441    -0.05900
H3250       H  0.64367283  0.99806613  0.70697652     0.14800
C3251       C  0.65930923  0.01009633  0.64444863    -0.16100
H3252       H  0.60977229  0.01162061  0.64511714     0.09200
H3253       H  0.53029433  0.96824299  0.70273585     0.07000
H3254       H  0.52370447  0.95361975  0.68118247     0.08200
H3255       H  0.50155870  0.97424324  0.69134752     0.07300
H3256       H  0.58704656  0.05107600  0.64766615     0.02100
H3257       H  0.58990124  0.06045306  0.67124808     0.02600
H3258       H  0.56442125  0.07138949  0.65761766     0.06100
H3259       H  0.60647629  0.00696094  0.72078248     0.05100
H3260       H  0.58203066  0.99183455  0.70866698    -0.00700
H3261       H  0.58484617  0.02540315  0.70802527     0.00800
H3262       H  0.65476307  0.02813392  0.63788030     0.04500
H3263       H  0.65582116  0.99485228  0.63457717     0.06400
H3264       H  0.67931098  0.01063491  0.64780589     0.07300
C3265       C  0.39553923  0.78581411  0.76203159    -0.22300
C3266       C  0.37374509  0.77450518  0.76777230     0.09600
C3267       C  0.35562611  0.76814466  0.75468722     0.10000
C3268       C  0.35985972  0.77355592  0.73607241    -0.17200
C3269       C  0.38209118  0.78489184  0.73012326    -0.27700
C3270       C  0.40031019  0.79065408  0.74373263     0.18400
C3271       C  0.37110633  0.77096287  0.78780702     0.12300
C3272       C  0.33225005  0.75505208  0.76031049    -0.12000
H3273       H  0.34580707  0.76837050  0.72631679     0.12600
C3274       C  0.42558431  0.80161544  0.74018507    -0.22900
H3275       H  0.40938189  0.79080346  0.77214778     0.08300
C3276       C  0.38793234  0.75578238  0.79749135     0.04600
C3277       C  0.39275080  0.76078290  0.81596869    -0.20100
C3278       C  0.38089072  0.78052436  0.82516346    -0.12400
C3279       C  0.35993205  0.79142387  0.81636273     0.13300
C3280       C  0.35620193  0.78751211  0.79760767    -0.22800
C3281       C  0.40133780  0.73480883  0.78810923    -0.05900
H3282       H  0.40644467  0.74961534  0.82295472     0.14800
C3283       C  0.34126347  0.80748155  0.82606061    -0.16100
H3284       H  0.34239005  0.79843129  0.79044250     0.09200
H3285       H  0.44007846  0.78862793  0.74520217     0.07000
H3286       H  0.42744380  0.81951488  0.74761043     0.08200
H3287       H  0.42961040  0.80521405  0.72587754     0.07300
H3288       H  0.32162134  0.76688317  0.76988633     0.02100
H3289       H  0.33701261  0.73722777  0.76710238     0.02600
H3290       H  0.32017777  0.75086155  0.74843613     0.06100
H3291       H  0.41334409  0.72430947  0.79770419     0.05100
H3292       H  0.41322805  0.74205549  0.77703562    -0.00700
H3293       H  0.38758098  0.72167050  0.78225489     0.00800
H3294       H  0.34180104  0.82668378  0.82051753     0.04500
H3295       H  0.34424553  0.80811239  0.84095674     0.06400
H3296       H  0.32242079  0.79975193  0.82382918     0.07300
C3297       C  0.47594154  0.75823072  0.66127476    -0.22300
C3298       C  0.49429804  0.76492940  0.67392647     0.09600
C3299       C  0.48756652  0.77634571  0.69046310     0.10000
C3300       C  0.46269309  0.78101863  0.69390575    -0.17200
C3301       C  0.44414389  0.77454796  0.68140293    -0.27700
C3302       C  0.45073792  0.76294560  0.66484538     0.18400
C3303       C  0.52063368  0.75953530  0.67037892     0.12300
C3304       C  0.50654518  0.78333278  0.70472132    -0.12000
H3305       H  0.45774128  0.78989461  0.70656467     0.12600
C3306       C  0.43138168  0.75470944  0.65133527    -0.22900
H3307       H  0.48135516  0.74922403  0.64870867     0.08300
C3308       C  0.53075980  0.73609648  0.67457737     0.04600
C3309       C  0.55643413  0.73388801  0.67693485    -0.20100
C3310       C  0.57201383  0.75481322  0.67597261    -0.12400
C3311       C  0.56188471  0.77794161  0.67034431     0.13300
C3312       C  0.53634192  0.77971263  0.66711817    -0.22800
C3313       C  0.51433417  0.71391579  0.67787928    -0.05900
H3314       H  0.56418686  0.71608838  0.68089186     0.14800
C3315       C  0.57690041  0.80151071  0.66956139    -0.16100
H3316       H  0.52816601  0.79762793  0.66396265     0.09200
H3317       H  0.43978781  0.74461045  0.63969772     0.07000
H3318       H  0.42137269  0.77100761  0.64576322     0.08200
H3319       H  0.41797720  0.74205543  0.65805080     0.07300
H3320       H  0.51932083  0.79766517  0.69930278     0.02100
H3321       H  0.51731950  0.76663946  0.70879860     0.02600
H3322       H  0.49777022  0.79112622  0.71713717     0.06100
H3323       H  0.52527140  0.69703380  0.68127405     0.05100
H3324       H  0.50325977  0.70992539  0.66546976    -0.00700
H3325       H  0.50161444  0.71777771  0.68939052     0.00800
H3326       H  0.59097723  0.80042738  0.65868386     0.04500
H3327       H  0.58572008  0.80485420  0.68292534     0.06400
H3328       H  0.56520487  0.81799596  0.66649653     0.07300
C3329       C  0.43318765  0.88654667  0.68861717    -0.22300
C3330       C  0.42362019  0.89643804  0.67251060     0.09600
C3331       C  0.40899460  0.88138289  0.66107082     0.10000
C3332       C  0.40257906  0.85723335  0.66674602    -0.17200
C3333       C  0.41090615  0.84773436  0.68352171    -0.27700
C3334       C  0.42748071  0.86230662  0.69414118     0.18400
C3335       C  0.42833035  0.92312925  0.66891569     0.12300
C3336       C  0.39999194  0.89104916  0.64310986    -0.12000
H3337       H  0.39053143  0.84599156  0.65825262     0.12600
C3338       C  0.44029954  0.85241828  0.71084318    -0.22900
H3339       H  0.44500683  0.89811042  0.69706607     0.08300
C3340       C  0.41356859  0.94149695  0.67718347     0.04600
C3341       C  0.42233116  0.96596251  0.67810104    -0.20100
C3342       C  0.44598504  0.97243602  0.67155611    -0.12400
C3343       C  0.45873990  0.95482245  0.66059213     0.13300
C3344       C  0.45001349  0.93014507  0.65986647    -0.22800
C3345       C  0.38930553  0.93496150  0.68606967    -0.05900
H3346       H  0.41133945  0.97974863  0.68520053     0.14800
C3347       C  0.48125854  0.96132380  0.64957671    -0.16100
H3348       H  0.46068148  0.91599689  0.65288128     0.09200
H3349       H  0.42692566  0.84995774  0.72204546     0.07000
H3350       H  0.45471952  0.86544025  0.71593084     0.08200
H3351       H  0.44970091  0.83466118  0.70752839     0.07300
H3352       H  0.41605732  0.89589269  0.63440018     0.02100
H3353       H  0.38880563  0.90795046  0.64552573     0.02600
H3354       H  0.38840255  0.87719368  0.63578868     0.06100
H3355       H  0.38000588  0.95159955  0.69186320     0.05100
H3356       H  0.39246129  0.92147686  0.69726836    -0.00700
H3357       H  0.37669052  0.92653822  0.67586862     0.00800
H3358       H  0.48936371  0.94471016  0.64285724     0.04500
H3359       H  0.49578671  0.96961435  0.65820434     0.06400
H3360       H  0.47593942  0.97448294  0.63862635     0.07300
C3361       C  0.75682535  0.63569103  0.42595947    -0.22300
C3362       C  0.74664137  0.61526404  0.41683810     0.09600
C3363       C  0.72197165  0.61604799  0.41066323     0.10000
C3364       C  0.70817036  0.63789181  0.41318468    -0.17200
C3365       C  0.71869785  0.65895111  0.42156023    -0.27700
C3366       C  0.74326667  0.65761110  0.42838366     0.18400
C3367       C  0.76299701  0.59383779  0.41349072     0.12300
C3368       C  0.71047483  0.59404989  0.40119104    -0.12000
H3369       H  0.68934396  0.63875775  0.40806603     0.12600
C3370       C  0.75543102  0.67891444  0.43834795    -0.22900
H3371       H  0.77578633  0.63460493  0.43081691     0.08300
C3372       C  0.77998137  0.59423313  0.39897787     0.04600
C3373       C  0.79922648  0.57681328  0.39866464    -0.20100
C3374       C  0.80200810  0.55926458  0.41265949    -0.12400
C3375       C  0.78389641  0.55781975  0.42653877     0.13300
C3376       C  0.76448174  0.57517534  0.42670577    -0.22800
C3377       C  0.77845510  0.61377695  0.38431955    -0.05900
H3378       H  0.81290104  0.57770877  0.38790704     0.14800
C3379       C  0.78581847  0.53938456  0.44191696    -0.16100
H3380       H  0.75132062  0.57523020  0.43782000     0.09200
H3381       H  0.75810751  0.69488959  0.42901339     0.07000
H3382       H  0.77399290  0.67372158  0.44370731     0.08200
H3383       H  0.74381244  0.68459615  0.45008153     0.07300
H3384       H  0.71068549  0.57770416  0.41041300     0.02100
H3385       H  0.72111754  0.58954806  0.38871473     0.02600
H3386       H  0.69096517  0.59778331  0.39718669     0.06100
H3387       H  0.79317668  0.61132971  0.37394054     0.05100
H3388       H  0.78060232  0.63256993  0.39038232    -0.00700
H3389       H  0.76022234  0.61260610  0.37734867     0.00800
H3390       H  0.77038024  0.54146857  0.45176299     0.04500
H3391       H  0.80345709  0.54223113  0.44945158     0.06400
H3392       H  0.78508571  0.52015155  0.43645000     0.07300
C3393       C  0.80932378  0.08793440  0.41475758    -0.22300
C3394       C  0.82987184  0.08422137  0.40350395     0.09600
C3395       C  0.83131884  0.06277247  0.39255420     0.10000
C3396       C  0.81258525  0.04480795  0.39375599    -0.17200
C3397       C  0.79249444  0.04784207  0.40567795    -0.27700
C3398       C  0.79052635  0.07001345  0.41601063     0.18400
C3399       C  0.85094363  0.10154901  0.40515313     0.12300
C3400       C  0.85295181  0.05857804  0.38001199    -0.12000
H3401       H  0.81396659  0.02799230  0.38567263     0.12600
C3402       C  0.76954214  0.07439724  0.42912449    -0.22900
H3403       H  0.80854981  0.10450761  0.42314813     0.08300
C3404       C  0.85246047  0.12350754  0.39478862     0.04600
C3405       C  0.87247458  0.13971129  0.39763841    -0.20100
C3406       C  0.89089021  0.13436575  0.41061362    -0.12400
C3407       C  0.88896866  0.11252338  0.42127514     0.13300
C3408       C  0.86915535  0.09625045  0.41818331    -0.22800
C3409       C  0.83301371  0.12975642  0.38078994    -0.05900
H3410       H  0.87391783  0.15651310  0.38955458     0.14800
C3411       C  0.90651387  0.10624761  0.43661695    -0.16100
H3412       H  0.86751872  0.07952341  0.42634757     0.09200
H3413       H  0.77163687  0.09230153  0.43651952     0.07000
H3414       H  0.76902249  0.05925859  0.43939187     0.08200
H3415       H  0.75168704  0.07509140  0.42161542     0.07300
H3416       H  0.87042316  0.05788069  0.38799957     0.02100
H3417       H  0.85407813  0.07397717  0.37000133     0.02600
H3418       H  0.85115079  0.04083542  0.37237280     0.06100
H3419       H  0.83704626  0.14765008  0.37385757     0.05100
H3420       H  0.81463940  0.13134563  0.38744031    -0.00700
H3421       H  0.83221414  0.11491267  0.37030749     0.00800
H3422       H  0.89577808  0.10355470  0.44933581     0.04500
H3423       H  0.92030753  0.12095510  0.43946572     0.06400
H3424       H  0.91646119  0.08871022  0.43341618     0.07300
C3425       C  0.74745273  0.87399159  0.42878657    -0.22300
C3426       C  0.74990350  0.86188536  0.41203742     0.09600
C3427       C  0.75858966  0.87510240  0.39675391     0.10000
C3428       C  0.76301436  0.90075880  0.39831243    -0.17200
C3429       C  0.75777847  0.91328816  0.41458895    -0.27700
C3430       C  0.75104035  0.89965889  0.43022585     0.18400
C3431       C  0.73883801  0.83689806  0.41044481     0.12300
C3432       C  0.76158438  0.86249277  0.37862981    -0.12000
H3433       H  0.76817258  0.91137968  0.38638125     0.12600
C3434       C  0.74693408  0.91222289  0.44833039    -0.22900
H3435       H  0.74092991  0.86359006  0.44045972     0.08300
C3436       C  0.75229099  0.81512241  0.41429022     0.04600
C3437       C  0.73962182  0.79237180  0.41545107    -0.20100
C3438       C  0.71371234  0.79112094  0.41326059    -0.12400
C3439       C  0.70046633  0.81302791  0.40862292     0.13300
C3440       C  0.71327474  0.83558968  0.40741768    -0.22800
C3441       C  0.77975011  0.81611473  0.41787095    -0.05900
H3442       H  0.74990750  0.77567918  0.41879741     0.14800
C3443       C  0.67290500  0.81313236  0.40507345    -0.16100
H3444       H  0.70313283  0.85261584  0.40501857     0.09200
H3445       H  0.74300983  0.89852408  0.45925291     0.07000
H3446       H  0.73090423  0.92508297  0.44757228     0.08200
H3447       H  0.76378249  0.92280627  0.45226082     0.07300
H3448       H  0.74366992  0.85432644  0.37438166     0.02100
H3449       H  0.77558056  0.84745872  0.37969756     0.02600
H3450       H  0.76766714  0.87571164  0.36792942     0.06100
H3451       H  0.78745282  0.79739299  0.42084064     0.05100
H3452       H  0.78355135  0.82830844  0.42975067    -0.00700
H3453       H  0.78946044  0.82364071  0.40578825     0.00800
H3454       H  0.66273226  0.80837696  0.41769867     0.04500
H3455       H  0.66831938  0.79959017  0.39416399     0.06400
H3456       H  0.66624230  0.83168913  0.40056037     0.07300
C3457       C  0.71615982  0.60831857  0.62171314    -0.22300
C3458       C  0.73853249  0.60795461  0.63139489     0.09600
C3459       C  0.74496691  0.62819691  0.64264177     0.10000
C3460       C  0.72927608  0.64888683  0.64338583    -0.17200
C3461       C  0.70758465  0.65014186  0.63279947    -0.27700
C3462       C  0.70051875  0.62921946  0.62223311     0.18400
C3463       C  0.75683654  0.58829393  0.62747628     0.12300
C3464       C  0.76907983  0.62856971  0.65307096    -0.12000
H3465       H  0.73466682  0.66472601  0.65162221     0.12600
C3466       C  0.67743084  0.62921515  0.61066449    -0.22900
H3467       H  0.71158910  0.59269168  0.61299713     0.08300
C3468       C  0.75993735  0.56735665  0.63879366     0.04600
C3469       C  0.78055297  0.55179667  0.63614651    -0.20100
C3470       C  0.79781646  0.55690689  0.62239053    -0.12400
C3471       C  0.79317865  0.57645589  0.60996539     0.13300
C3472       C  0.77294588  0.59215752  0.61287314    -0.22800
C3473       C  0.74186905  0.56190343  0.65383343    -0.05900
H3474       H  0.78393890  0.53652191  0.64544493     0.14800
C3475       C  0.80908603  0.58127767  0.59348446    -0.16100
H3476       H  0.77006153  0.60796358  0.60395130     0.09200
H3477       H  0.66088780  0.63171785  0.61941589     0.07000
H3478       H  0.67514317  0.61143335  0.60314180     0.08200
H3479       H  0.67836224  0.64444232  0.60048828     0.07300
H3480       H  0.78488922  0.62722328  0.64348821     0.02100
H3481       H  0.76981346  0.61267385  0.66266793     0.02600
H3482       H  0.77129640  0.64596098  0.66107482     0.06100
H3483       H  0.74697134  0.54475048  0.66137888     0.05100
H3484       H  0.72306248  0.55927997  0.64797817    -0.00700
H3485       H  0.74139066  0.57758013  0.66364490     0.00800
H3486       H  0.79717989  0.58185578  0.58114423     0.04500
H3487       H  0.82312421  0.56659447  0.59111340     0.06400
H3488       H  0.81861178  0.59946599  0.59498138     0.07300
C3489       C  0.67200129  0.70732913  0.53985292    -0.22300
C3490       C  0.64893058  0.71515764  0.53328100     0.09600
C3491       C  0.62979118  0.72041991  0.54575462     0.10000
C3492       C  0.63467605  0.71910733  0.56461929    -0.17200
C3493       C  0.65837627  0.71284874  0.57125585    -0.27700
C3494       C  0.67705869  0.70611987  0.55856956     0.18400
C3495       C  0.64648216  0.71932697  0.51330707     0.12300
C3496       C  0.60447925  0.72791817  0.53912608    -0.12000
H3497       H  0.62019715  0.72391245  0.57418080     0.12600
C3498       C  0.70246227  0.69750695  0.56446233    -0.22900
H3499       H  0.68647980  0.70295241  0.53016926     0.08300
C3500       C  0.65655231  0.74082989  0.50520980     0.04600
C3501       C  0.65909621  0.74195184  0.48621790    -0.20100
C3502       C  0.65178501  0.72212375  0.47491758    -0.12400
C3503       C  0.64004276  0.70119499  0.48300969     0.13300
C3504       C  0.63757973  0.70016736  0.50210737    -0.22800
C3505       C  0.66535886  0.76232470  0.51670468    -0.05900
H3506       H  0.66779325  0.75812359  0.48017802     0.14800
C3507       C  0.63131598  0.67880121  0.47243513    -0.16100
H3508       H  0.62988000  0.68364435  0.50837635     0.09200
H3509       H  0.71273667  0.71300472  0.57099249     0.07000
H3510       H  0.71375749  0.69111067  0.55274562     0.08200
H3511       H  0.70073631  0.68167215  0.57407208     0.07300
H3512       H  0.59654414  0.71281803  0.53060531     0.02100
H3513       H  0.60584710  0.74514971  0.53087783     0.02600
H3514       H  0.59160752  0.73148074  0.55060153     0.06100
H3515       H  0.67246552  0.77785297  0.50823927     0.05100
H3516       H  0.68054271  0.75619333  0.52587698    -0.00700
H3517       H  0.64975589  0.76949084  0.52501265     0.00800
H3518       H  0.64115026  0.66197625  0.47741790     0.04500
H3519       H  0.63453070  0.67999899  0.45766067     0.06400
H3520       H  0.61112116  0.67624825  0.47460783     0.07300
C3521       C  0.87091199  0.10566005  0.61180368    -0.22300
C3522       C  0.87264074  0.08836319  0.62600110     0.09600
C3523       C  0.89239121  0.09007341  0.63859092     0.10000
C3524       C  0.90962771  0.10951539  0.63690083    -0.17200
C3525       C  0.90738744  0.12730155  0.62301991    -0.27700
C3526       C  0.88807254  0.12503633  0.61005479     0.18400
C3527       C  0.85367287  0.06847222  0.62706131     0.12300
C3528       C  0.89490811  0.07187441  0.65406563    -0.12000
H3529       H  0.92453874  0.11122903  0.64672333     0.12600
C3530       C  0.88539739  0.14199812  0.59380936    -0.22900
H3531       H  0.85613471  0.10385565  0.60186574     0.08300
C3532       C  0.82877842  0.07386539  0.63138652     0.04600
C3533       C  0.81112080  0.05475925  0.63079950    -0.20100
C3534       C  0.81772144  0.03028182  0.62618570    -0.12400
C3535       C  0.84288916  0.02476790  0.62237577     0.13300
C3536       C  0.86045125  0.04403502  0.62269864    -0.22800
C3537       C  0.82082071  0.09971285  0.63677845    -0.05900
H3538       H  0.79197193  0.05902273  0.63393589     0.14800
C3539       C  0.85138835  0.99894425  0.61738173    -0.16100
H3540       H  0.87956722  0.04013561  0.61919885     0.09200
H3541       H  0.86774926  0.15251659  0.59483045     0.07000
H3542       H  0.88500144  0.13065652  0.58117905     0.08200
H3543       H  0.90081599  0.15540105  0.59232028     0.07300
H3544       H  0.89783127  0.05281956  0.64869076     0.02100
H3545       H  0.87785029  0.07219015  0.66247206     0.02600
H3546       H  0.91089549  0.07647607  0.66299950     0.06100
H3547       H  0.80086760  0.10040628  0.64041092     0.05100
H3548       H  0.82379994  0.11284396  0.62536457    -0.00700
H3549       H  0.83170890  0.10595310  0.64877821     0.00800
H3550       H  0.87150861  0.99840014  0.61425560     0.04500
H3551       H  0.84122020  0.99235643  0.60514300     0.06400
H3552       H  0.84811642  0.98605331  0.62891515     0.07300
C3553       C  0.72112062  0.98355163  0.49839489    -0.22300
C3554       C  0.73926692  0.99741279  0.50761353     0.09600
C3555       C  0.75607485  0.01193718  0.49747170     0.10000
C3556       C  0.75474380  0.01177849  0.47835844    -0.17200
C3557       C  0.73706155  0.99737308  0.46906168    -0.27700
C3558       C  0.71986277  0.98318559  0.47925339     0.18400
C3559       C  0.74204780  0.99426533  0.52767146     0.12300
C3560       C  0.77590538  0.02701218  0.50679871    -0.12000
H3561       H  0.76807197  0.02241216  0.47057834     0.12600
C3562       C  0.70098495  0.96623149  0.47056821    -0.22900
H3563       H  0.70848575  0.97211574  0.50618328     0.08300
C3564       C  0.72952326  0.00943363  0.54033307     0.04600
C3565       C  0.73307871  0.00548446  0.55915290    -0.20100
C3566       C  0.74884042  0.98656825  0.56568447    -0.12400
C3567       C  0.76096715  0.97104934  0.55274701     0.13300
C3568       C  0.75745680  0.97523582  0.53403512    -0.22800
C3569       C  0.71237838  0.02971610  0.53392873    -0.05900
H3570       H  0.72361813  0.01738454  0.56879102     0.14800
C3571       C  0.77715131  0.94950058  0.55830988    -0.16100
H3572       H  0.76677430  0.96349318  0.52420046     0.09200
H3573       H  0.68209731  0.97206126  0.47473509     0.07000
H3574       H  0.70419525  0.94684656  0.47522826     0.08200
H3575       H  0.70169828  0.96618475  0.45553038     0.07300
H3576       H  0.78822766  0.01454530  0.51476342     0.02100
H3577       H  0.76726807  0.04074063  0.51610802     0.02600
H3578       H  0.78748297  0.03733638  0.49687439     0.06100
H3579       H  0.70393116  0.03988425  0.54551231     0.05100
H3580       H  0.69721626  0.02153025  0.52562619    -0.00700
H3581       H  0.72276005  0.04329212  0.52551833     0.00800
H3582       H  0.78396161  0.93880394  0.54639388     0.04500
H3583       H  0.76625249  0.93658024  0.56688439     0.06400
H3584       H  0.79366797  0.95628366  0.56584012     0.07300
C3585       C  0.75716208  0.80611981  0.63065171    -0.22300
C3586       C  0.74606061  0.82737128  0.62322149     0.09600
C3587       C  0.72217999  0.82573948  0.61538251     0.10000
C3588       C  0.70962040  0.80304707  0.61582938    -0.17200
C3589       C  0.72005711  0.78193670  0.62406853    -0.27700
C3590       C  0.74439651  0.78337803  0.63133411     0.18400
C3591       C  0.75853135  0.85161858  0.62525413     0.12300
C3592       C  0.70903899  0.84761656  0.60680967    -0.12000
H3593       H  0.69117472  0.80207100  0.60997724     0.12600
C3594       C  0.75674100  0.76153541  0.64046180    -0.22900
H3595       H  0.77548138  0.80767203  0.63662810     0.08300
C3596       C  0.75629319  0.86552116  0.64148291     0.04600
C3597       C  0.76210765  0.89086614  0.64127969    -0.20100
C3598       C  0.77015570  0.90244600  0.62534259    -0.12400
C3599       C  0.77514357  0.88797587  0.60973538     0.13300
C3600       C  0.76927592  0.86257885  0.60988014    -0.22800
C3601       C  0.74633183  0.85474330  0.65888706    -0.05900
H3602       H  0.75866145  0.90202925  0.65329097     0.14800
C3603       C  0.78528118  0.89898455  0.59247937    -0.16100
H3604       H  0.77135967  0.85172371  0.59753751     0.09200
H3605       H  0.74533701  0.75514473  0.65210798     0.07000
H3606       H  0.77538445  0.76642233  0.64581186     0.08200
H3607       H  0.75914205  0.74614457  0.63055227     0.07300
H3608       H  0.70525876  0.84348875  0.59226215     0.02100
H3609       H  0.71970885  0.86516344  0.60750827     0.02600
H3610       H  0.69112911  0.85086738  0.61377997     0.06100
H3611       H  0.72971871  0.86537520  0.66297793     0.05100
H3612       H  0.76055405  0.85643274  0.66975718    -0.00700
H3613       H  0.74102194  0.83491912  0.65778504     0.00800
H3614       H  0.80277576  0.88935467  0.58881996     0.04500
H3615       H  0.78942903  0.91909584  0.59379532     0.06400
H3616       H  0.77167480  0.89634145  0.58129251     0.07300
C3617       C  0.71969893  0.58850635  0.13973695    -0.22300
C3618       C  0.73746031  0.58851952  0.12586972     0.09600
C3619       C  0.73759977  0.60781084  0.11288391     0.10000
C3620       C  0.71973171  0.62665423  0.11395214    -0.17200
C3621       C  0.70154662  0.62640169  0.12754269    -0.27700
C3622       C  0.70169385  0.60731192  0.14077354     0.18400
C3623       C  0.75626111  0.56854512  0.12539616     0.12300
C3624       C  0.75662002  0.60847856  0.09792809    -0.12000
H3625       H  0.71959710  0.64136525  0.10386528     0.12600
C3626       C  0.68358543  0.60721380  0.15634344    -0.22900
H3627       H  0.72004263  0.57377799  0.14980313     0.08300
C3628       C  0.77810249  0.57013343  0.13586980     0.04600
C3629       C  0.79617551  0.55154402  0.13416936    -0.20100
C3630       C  0.79269621  0.53121484  0.12244121    -0.12400
C3631       C  0.77076134  0.52976199  0.11181622     0.13300
C3632       C  0.75270870  0.54837354  0.11362045    -0.22800
C3633       C  0.78225327  0.59144501  0.14883511    -0.05900
H3634       H  0.81292088  0.55263424  0.14231070     0.14800
C3635       C  0.76609149  0.50970837  0.09785450    -0.16100
H3636       H  0.73597773  0.54750150  0.10543100     0.09200
H3637       H  0.68507015  0.62494159  0.16403862     0.07000
H3638       H  0.68727888  0.59168503  0.16593756     0.08200
H3639       H  0.66440608  0.60498512  0.15113753     0.07300
H3640       H  0.75488900  0.59157782  0.08933621     0.02100
H3641       H  0.77551325  0.60917973  0.10391968     0.02600
H3642       H  0.75422968  0.62500113  0.08902875     0.06100
H3643       H  0.80040176  0.58995515  0.15590987     0.05100
H3644       H  0.76746674  0.59157853  0.15930647    -0.00700
H3645       H  0.78186040  0.60931698  0.14128210     0.00800
H3646       H  0.74993459  0.49832430  0.10206386     0.04500
H3647       H  0.78213212  0.49727858  0.09564898     0.06400
H3648       H  0.76188045  0.51844857  0.08451095     0.07300
C3649       C  0.29336501  0.67530441  0.11936368    -0.22300
C3650       C  0.27335552  0.68360349  0.12977845     0.09600
C3651       C  0.27457951  0.70680351  0.13866329     0.10000
C3652       C  0.29649606  0.72079336  0.13759601    -0.17200
C3653       C  0.31702951  0.71183500  0.12791554    -0.27700
C3654       C  0.31505800  0.68932282  0.11800713     0.18400
C3655       C  0.25245172  0.66634898  0.13233921     0.12300
C3656       C  0.25293268  0.71648302  0.14941745    -0.12000
H3657       H  0.29795677  0.73824130  0.14492304     0.12600
C3658       C  0.33508732  0.67968015  0.10555503    -0.22900
H3659       H  0.29210764  0.65757026  0.11237104     0.08300
C3660       C  0.23465408  0.66234144  0.11859493     0.04600
C3661       C  0.21797936  0.64248730  0.12034097    -0.20100
C3662       C  0.21931949  0.62623008  0.13527227    -0.12400
C3663       C  0.23628110  0.63125707  0.14955481     0.13300
C3664       C  0.25257217  0.65138523  0.14789858    -0.22800
C3665       C  0.23378218  0.67857237  0.10191380    -0.05900
H3666       H  0.20482104  0.63882267  0.10950815     0.14800
C3667       C  0.23749176  0.61556395  0.16653772    -0.16100
H3668       H  0.26633190  0.65477046  0.15838240     0.09200
H3669       H  0.32706661  0.67608448  0.09187218     0.07000
H3670       H  0.34262600  0.66198148  0.11103813     0.08200
H3671       H  0.35052206  0.69294199  0.10355740     0.07300
H3672       H  0.24859261  0.70349353  0.16069720     0.02100
H3673       H  0.23648827  0.71819149  0.14039069     0.02600
H3674       H  0.25687533  0.73505764  0.15537708     0.06100
H3675       H  0.21851432  0.67307611  0.09258129     0.05100
H3676       H  0.25149225  0.67708917  0.09434842    -0.00700
H3677       H  0.23081399  0.69822889  0.10600351     0.00800
H3678       H  0.25051127  0.62348007  0.17673992     0.04500
H3679       H  0.24413902  0.59657438  0.16323628     0.06400
H3680       H  0.21887617  0.61455070  0.17289123     0.07300
C3681       C  0.53124129  0.65665512  0.12586377    -0.22300
C3682       C  0.51972168  0.67867456  0.12021079     0.09600
C3683       C  0.53409806  0.69871742  0.11388022     0.10000
C3684       C  0.55986245  0.69666840  0.11404549    -0.17200
C3685       C  0.57175316  0.67526112  0.12071193    -0.27700
C3686       C  0.55721595  0.65458422  0.12612458     0.18400
C3687       C  0.49310788  0.68230515  0.12357924     0.12300
C3688       C  0.52232241  0.72281450  0.10780170    -0.12000
H3689       H  0.57077294  0.71238883  0.10951569     0.12600
C3690       C  0.56869471  0.63069070  0.13272468    -0.22900
H3691       H  0.51987392  0.64146234  0.13075316     0.08300
C3692       C  0.47535003  0.68016750  0.10957413     0.04600
C3693       C  0.45167265  0.69030889  0.11223030    -0.20100
C3694       C  0.44587986  0.70277776  0.12844882    -0.12400
C3695       C  0.46291280  0.70263001  0.14304328     0.13300
C3696       C  0.48639537  0.69228107  0.14044383    -0.22800
C3697       C  0.48174443  0.66810479  0.09170415    -0.05900
H3698       H  0.43830662  0.69003431  0.10119860     0.14800
C3699       C  0.45649345  0.71354602  0.16128498    -0.16100
H3700       H  0.50015045  0.69348651  0.15118900     0.09200
H3701       H  0.55441568  0.61671646  0.13642686     0.07000
H3702       H  0.58017624  0.63430941  0.14499627     0.08200
H3703       H  0.58033466  0.62250196  0.12182616     0.07300
H3704       H  0.51137087  0.73100024  0.11907591     0.02100
H3705       H  0.53640113  0.73673210  0.10361960     0.02600
H3706       H  0.50989920  0.71939282  0.09602184     0.06100
H3707       H  0.46564392  0.66789307  0.08225850     0.05100
H3708       H  0.48763418  0.64859314  0.09411481    -0.00700
H3709       H  0.49707690  0.67832950  0.08502632     0.00800
H3710       H  0.47130512  0.70991714  0.17140605     0.04500
H3711       H  0.43915505  0.70501104  0.16644089     0.06400
H3712       H  0.45405481  0.73395624  0.16015719     0.07300
C3713       C  0.73694814  0.61544678  0.92412770    -0.22300
C3714       C  0.73378053  0.59543726  0.91216008     0.09600
C3715       C  0.71232803  0.59399913  0.90123515     0.10000
C3716       C  0.69439300  0.61280854  0.90250463    -0.17200
C3717       C  0.69762465  0.63309441  0.91432113    -0.27700
C3718       C  0.71915214  0.63437364  0.92536138     0.18400
C3719       C  0.75289968  0.57579246  0.91178418     0.12300
C3720       C  0.70850356  0.57270517  0.88820411    -0.12000
H3721       H  0.67786794  0.61178421  0.89412253     0.12600
C3722       C  0.72309831  0.65501977  0.93896901    -0.22900
H3723       H  0.75339010  0.61611337  0.93262164     0.08300
C3724       C  0.77508061  0.57872536  0.90193605     0.04600
C3725       C  0.79294500  0.55976314  0.90246533    -0.20100
C3726       C  0.78911546  0.53811159  0.91275468    -0.12400
C3727       C  0.76718141  0.53568478  0.92316779     0.13300
C3728       C  0.74913744  0.55436496  0.92219827    -0.22800
C3729       C  0.77974574  0.60177443  0.89082662    -0.05900
H3730       H  0.80987580  0.56174046  0.89469799     0.14800
C3731       C  0.76262002  0.51457646  0.93626730    -0.16100
H3732       H  0.73228033  0.55258709  0.93009469     0.09200
H3733       H  0.72501424  0.67308333  0.93182362     0.07000
H3734       H  0.74019964  0.65213984  0.94714465     0.08200
H3735       H  0.70719452  0.65585557  0.94850989     0.07300
H3736       H  0.70794613  0.55488706  0.89581274     0.02100
H3737       H  0.72396546  0.57212463  0.87827877     0.02600
H3738       H  0.69086508  0.57458696  0.88050474     0.06100
H3739       H  0.79791188  0.60097671  0.88378848     0.05100
H3740       H  0.77971724  0.61838586  0.89980433    -0.00700
H3741       H  0.76500377  0.60384134  0.88036905     0.00800
H3742       H  0.75827203  0.52229438  0.94991185     0.04500
H3743       H  0.77875719  0.50215520  0.93814676     0.06400
H3744       H  0.74659026  0.50337687  0.93149956     0.07300
C3745       C  0.67755143  0.70901951  0.00055292    -0.22300
C3746       C  0.65693875  0.70386734  0.01151835     0.09600
C3747       C  0.63421099  0.69737784  0.00325251     0.10000
C3748       C  0.63274546  0.69570373  0.98424632    -0.17200
C3749       C  0.65349722  0.70006337  0.97321859    -0.27700
C3750       C  0.67625735  0.70690571  0.98148336     0.18400
C3751       C  0.65992629  0.70269370  0.03160320     0.12300
C3752       C  0.61173270  0.69122312  0.01451382    -0.12000
H3753       H  0.61534824  0.69038891  0.97793426     0.12600
C3754       C  0.69990194  0.71050177  0.97093841    -0.22900
H3755       H  0.69506701  0.71363221  0.00697590     0.08300
C3756       C  0.67012263  0.68140996  0.03998886     0.04600
C3757       C  0.66930493  0.67918146  0.05898762    -0.20100
C3758       C  0.65861051  0.69772934  0.06988496    -0.12400
C3759       C  0.64901987  0.71946260  0.06151349     0.13300
C3760       C  0.65003921  0.72172021  0.04245640    -0.22800
C3761       C  0.68101905  0.66059093  0.02884153    -0.05900
H3762       H  0.67651611  0.66250114  0.06538468     0.14800
C3763       C  0.63612867  0.73986430  0.07191573    -0.16100
H3764       H  0.64199461  0.73792210  0.03594225     0.09200
H3765       H  0.71415491  0.69730070  0.97602570     0.07000
H3766       H  0.70674422  0.72978179  0.97294781     0.08200
H3767       H  0.69784763  0.70715710  0.95617157     0.07300
H3768       H  0.60637643  0.70757134  0.02284671     0.02100
H3769       H  0.61592327  0.67529881  0.02363287     0.02600
H3770       H  0.59560734  0.68605802  0.00588174     0.06100
H3771       H  0.68775448  0.64509874  0.03753827     0.05100
H3772       H  0.69695636  0.66763259  0.02084677    -0.00700
H3773       H  0.66677305  0.65305400  0.01940915     0.00800
H3774       H  0.64624808  0.75763638  0.06997027     0.04500
H3775       H  0.63477455  0.73624250  0.08668156     0.06400
H3776       H  0.61694490  0.74207289  0.06664868     0.07300
C3777       C  0.28994515  0.68340935  0.93104833    -0.22300
C3778       C  0.26957031  0.69265114  0.92139796     0.09600
C3779       C  0.27033378  0.71685975  0.91409571     0.10000
C3780       C  0.29204705  0.73108702  0.91613875    -0.17200
C3781       C  0.31293641  0.72140973  0.92518349    -0.27700
C3782       C  0.31162034  0.69739117  0.93307797     0.18400
C3783       C  0.24818116  0.67578840  0.91902378     0.12300
C3784       C  0.24840554  0.72744240  0.90405982    -0.12000
H3785       H  0.29294108  0.74953039  0.91023044     0.12600
C3786       C  0.33267031  0.68639041  0.94399395    -0.22900
H3787       H  0.28894795  0.66486323  0.93679156     0.08300
C3788       C  0.24847753  0.65730073  0.90543764     0.04600
C3789       C  0.23181811  0.63739766  0.90656409    -0.20100
C3790       C  0.21493214  0.63543622  0.92100415    -0.12400
C3791       C  0.21351265  0.65496648  0.93396307     0.13300
C3792       C  0.23014898  0.67498651  0.93267549    -0.22800
C3793       C  0.26713702  0.65799687  0.89022640    -0.05900
H3794       H  0.23274224  0.62263310  0.89653387     0.14800
C3795       C  0.19631843  0.65475374  0.95009465    -0.16100
H3796       H  0.23021661  0.68919153  0.94316179     0.09200
H3797       H  0.34882873  0.68274713  0.93508494     0.07000
H3798       H  0.32744529  0.66837638  0.95030045     0.08200
H3799       H  0.33800928  0.69932254  0.95512293     0.07300
H3800       H  0.23209957  0.72798295  0.91322660     0.02100
H3801       H  0.24399641  0.71565690  0.89208025     0.02600
H3802       H  0.25206090  0.74664706  0.89919605     0.06100
H3803       H  0.26476793  0.64209581  0.88072447     0.05100
H3804       H  0.28621957  0.65717658  0.89586609    -0.00700
H3805       H  0.26489305  0.67545731  0.88234386     0.00800
H3806       H  0.20737467  0.65579874  0.96283987     0.04500
H3807       H  0.18462448  0.63797867  0.95099833     0.06400
H3808       H  0.18390917  0.67120886  0.94942022     0.07300
C3809       C  0.36021686  0.77060236  0.01151816    -0.22300
C3810       C  0.37598960  0.78849681  0.01912739     0.09600
C3811       C  0.38881512  0.80497154  0.00748303     0.10000
C3812       C  0.38677321  0.80203388  0.98843178    -0.17200
C3813       C  0.37199469  0.78310648  0.98088062    -0.27700
C3814       C  0.35763545  0.76804941  0.99263246     0.18400
C3815       C  0.38005570  0.78794133  0.03919446     0.12300
C3816       C  0.40471992  0.82543697  0.01519588    -0.12000
H3817       H  0.39764474  0.81371447  0.97947804     0.12600
C3818       C  0.33921834  0.74913203  0.98572724    -0.22900
H3819       H  0.35008757  0.75817621  0.02042428     0.08300
C3820       C  0.36147604  0.79515457  0.05163707     0.04600
C3821       C  0.36481521  0.79049588  0.07034550    -0.20100
C3822       C  0.38616702  0.77844021  0.07688307    -0.12400
C3823       C  0.40553150  0.77288294  0.06449357     0.13300
C3824       C  0.40202062  0.77735941  0.04584050    -0.22800
C3825       C  0.33789556  0.80722778  0.04511807    -0.05900
H3826       H  0.35002042  0.79493684  0.07974716     0.14800
C3827       C  0.43020103  0.76229644  0.07033521    -0.16100
H3828       H  0.41637117  0.77198395  0.03631378     0.09200
H3829       H  0.32078884  0.75294700  0.99180920     0.07000
H3830       H  0.34523595  0.73017335  0.98976887     0.08200
H3831       H  0.33673624  0.74962520  0.97076090     0.07300
H3832       H  0.41995654  0.81742260  0.02349318     0.02100
H3833       H  0.39323876  0.83775419  0.02390362     0.02600
H3834       H  0.41309755  0.83695195  0.00428733     0.06100
H3835       H  0.32554471  0.81220168  0.05662161     0.05100
H3836       H  0.32760430  0.79436024  0.03603140    -0.00700
H3837       H  0.34237375  0.82450772  0.03754880     0.00800
H3838       H  0.43207226  0.74296900  0.06518223     0.04500
H3839       H  0.43295118  0.76240761  0.08526484     0.06400
H3840       H  0.44536032  0.77376912  0.06454858     0.07300
C3841       C  0.47078636  0.68576316  0.92437437    -0.22300
C3842       C  0.49211802  0.70014377  0.92678402     0.09600
C3843       C  0.49010460  0.72608356  0.92922505     0.10000
C3844       C  0.46668631  0.73716659  0.92891699    -0.17200
C3845       C  0.44508975  0.72296418  0.92646684    -0.27700
C3846       C  0.44717625  0.69677243  0.92432474     0.18400
C3847       C  0.51667056  0.68828726  0.92535787     0.12300
C3848       C  0.51269723  0.74218706  0.93191470    -0.12000
H3849       H  0.46532555  0.75714164  0.93061162     0.12600
C3850       C  0.42487663  0.68017001  0.92206113    -0.22900
H3851       H  0.47269387  0.66587161  0.92243074     0.08300
C3852       C  0.53141476  0.68411478  0.94090287     0.04600
C3853       C  0.55673895  0.67943056  0.93866482    -0.20100
C3854       C  0.56712771  0.67757070  0.92125145    -0.12400
C3855       C  0.55169139  0.67837773  0.90575564     0.13300
C3856       C  0.52655838  0.68426768  0.90797406    -0.22800
C3857       C  0.52049949  0.68498284  0.95974699    -0.05900
H3858       H  0.56867983  0.67818515  0.95051729     0.14800
C3859       C  0.56186130  0.67418633  0.88694458    -0.16100
H3860       H  0.51486841  0.68696670  0.89611710     0.09200
H3861       H  0.43018727  0.66025721  0.92101679     0.07000
H3862       H  0.41474601  0.68512637  0.90941100     0.08200
H3863       H  0.41246124  0.68213983  0.93399705     0.07300
H3864       H  0.52610837  0.73869660  0.92087364     0.02100
H3865       H  0.52180902  0.73777295  0.94504071     0.02600
H3866       H  0.50798677  0.76230076  0.93195306     0.06100
H3867       H  0.53468036  0.68107238  0.97034779     0.05100
H3868       H  0.50569900  0.67073398  0.96087441    -0.00700
H3869       H  0.51237360  0.70350029  0.96259752     0.00800
H3870       H  0.54725319  0.67609356  0.87635949     0.04500
H3871       H  0.56967077  0.65512475  0.88603445     0.06400
H3872       H  0.57668345  0.68778714  0.88393203     0.07300
loop_ 
_geom_bond_atom_site_label_1 
_geom_bond_atom_site_label_2 
_geom_bond_distance 
_geom_bond_site_symmetry_2 
_ccdc_geom_bond_type 
In1           O3   2.234       .  S
In1           O4   2.238       .  S
In1          O12   2.219       .  S
In1           O6   2.296       .  S
In1           O8   2.269       .  S
In1           O9   2.200       .  S
In1          O10   2.250       .  S
In1          O13   2.256       .  S
C2            O8   1.264       .  A
C2           O10   1.256       .  A
C2          C158   1.481       .  S
O3           C11   1.261       .  A
O4           C11   1.258       .  A
C5           O12   1.256       .  A
C5            O6   1.267       .  A
C5         C3813   1.484       .  S
C7            O9   1.260       .  A
C7           O13   1.267       .  A
C7         C3781   1.479       .  S
C11        C3845   1.483       .  S
In14         O16   2.227       .  S
In14         O17   2.241       .  S
In14         O25   2.225       .  S
In14         O19   2.262       .  S
In14         O21   2.250       .  S
In14         O22   2.264       .  S
In14         O23   2.255       .  S
In14         O26   2.210       .  S
C15          O21   1.261       .  A
C15          O23   1.258       .  A
C15         C194   1.476       .  S
O16          C24   1.261       .  A
O17          C24   1.263       .  A
C18          O25   1.261       .  A
C18          O19   1.266       .  A
C18        C3749   1.479       .  S
C20          O22   1.263       .  A
C20          O26   1.257       .  A
C20        C3854   1.465       .  S
C24        C3717   1.477       .  S
In27         O29   2.251       .  S
In27         O30   2.214       .  S
In27         O38   2.234       .  S
In27         O32   2.286       .  S
In27         O34   2.239       .  S
In27         O35   2.249       .  S
In27         O36   2.267       .  S
In27         O39   2.220       .  S
C28          O34   1.262       .  A
C28          O36   1.261       .  A
C28         C330   1.479       .  S
O29          C37   1.262       .  A
O30          C37   1.259       .  A
C31          O38   1.255       .  A
C31          O32   1.263       .  A
C31        C3822   1.487       .  S
C33          O35   1.261       .  A
C33          O39   1.259       .  A
C33        C3694   1.468       .  S
C37        C3653   1.469       .  S
In40         O42   2.207       .  S
In40         O43   2.257       .  S
In40         O51   2.225       .  S
In40         O45   2.264       .  S
In40         O47   2.261       .  S
In40         O48   2.229       .  S
In40         O49   2.241       .  S
In40         O52   2.231       .  S
C41          O47   1.263       .  A
C41          O49   1.259       .  A
C41         C318   1.476       .  S
O42          C50   1.259       .  A
O43          C50   1.262       .  A
C44          O51   1.260       .  A
C44          O45   1.266       .  A
C44        C3758   1.479       .  S
C46          O48   1.264       .  A
C46          O52   1.264       .  A
C46        C3621   1.473       .  S
C50        C3685   1.481       .  S
In53         O55   2.221       .  S
In53         O56   2.257       .  S
In53         O64   2.236       .  S
In53         O58   2.296       .  S
In53         O60   2.286       .  S
In53         O61   2.234       .  S
In53         O62   2.254       .  S
In53         O65   2.235   1_565  S
C54          O60   1.265       .  A
C54          O62   1.259       .  A
C54         C146   1.489       .  S
O55          C63   1.260       .  A
O56          C63   1.261       .  A
C57          O64   1.256       .  A
C57          O58   1.267       .  A
C57        C3566   1.502       .  S
C59          O61   1.262   1_545  A
C59          O65   1.265       .  A
C59        C3534   1.483       .  S
C63        C3598   1.465       .  S
In66         O68   2.249       .  S
In66         O69   2.213       .  S
In66         O77   2.219       .  S
In66         O71   2.291       .  S
In66         O73   2.269       .  S
In66         O74   2.241       .  S
In66         O75   2.252       .  S
In66         O78   2.228       .  S
C67          O73   1.262       .  A
C67          O75   1.257       .  A
C67         C134   1.481       .  S
O68          C76   1.265       .  A
O69          C76   1.262       .  A
C70          O77   1.257       .  A
C70          O71   1.268       .  A
C70        C3493   1.494       .  S
C72          O74   1.260       .  A
C72          O78   1.261       .  A
C72        C3589   1.480       .  S
C76        C3461   1.482       .  S
In79         O81   2.228   1_565  S
In79         O82   2.222   1_565  S
In79         O90   2.229       .  S
In79         O84   2.270       .  S
In79         O86   2.265       .  S
In79         O87   2.262       .  S
In79         O88   2.238       .  S
In79         O91   2.200       .  S
C80          O86   1.264       .  A
C80          O88   1.257       .  A
C80         C258   1.477       .  S
O81          C89   1.265       .  A
O82          C89   1.266       .  A
C83          O90   1.261       .  A
C83          O84   1.268       .  A
C83        C3557   1.483       .  S
C85          O87   1.263       .  A
C85          O91   1.257       .  A
C85        C3429   1.466       .  S
C89        C3397   1.478       .  S
In92         O94   2.224       .  S
In92         O95   2.247       .  S
In92        O103   2.240       .  S
In92         O97   2.286       .  S
In92         O99   2.256       .  S
In92        O100   2.215       .  S
In92        O101   2.251       .  S
In92        O104   2.239       .  S
C93          O99   1.263       .  A
C93         O101   1.258       .  A
C93         C270   1.478       .  S
O94         C102   1.259       .  A
O95         C102   1.262       .  A
C96         O103   1.258       .  A
C96          O97   1.264       .  A
C96        C3502   1.492       .  S
C98         O100   1.261       .  A
C98         O104   1.265       .  A
C98        C3365   1.479       .  S
C102       C3438   1.482       .  S
C105        C106   1.542       .  S
C105        C111   1.534       .  S
C105        C109   1.550       .  S
C105       C3269   1.548       .  S
C106        H113   1.084       .  S
C106        C107   1.365       .  D
C107       C3333   1.494       .  S
C107        C108   1.538       .  S
C108        C112   1.531       .  S
C108        C110   1.541       .  S
C108        H114   1.109       .  S
C109        H115   1.083       .  S
C109        C110   1.378       .  D
C110        C363   1.477       .  S
C111        H116   1.087       .  S
C111        C112   1.362       .  D
C112       C3301   1.480       .  S
C117        C118   1.528       .  S
C117        C123   1.536       .  S
C117        C121   1.557       .  S
C117       C3205   1.549       .  S
C118        H125   1.087       .  S
C118        C119   1.356       .  D
C119       C3237   1.476       .  S
C119        C120   1.537       .  S
C120        C124   1.542   1_545  S
C120        C122   1.535       .  S
C120        H126   1.104       .  S
C121        H127   1.082       .  S
C121        C122   1.376       .  D
C122        C350   1.478       .  S
C123        H128   1.085   1_545  S
C123        C124   1.372   1_545  D
C124       C3342   1.505       .  S
C129        C130   1.552       .  S
C129        C135   1.535       .  S
C129        C133   1.539       .  S
C129       C3141   1.551       .  S
C130        H137   1.079       .  S
C130        C131   1.371       .  D
C131       C3310   1.488       .  S
C131        C132   1.532       .  S
C132        C136   1.542       .  S
C132        C134   1.539       .  S
C132        H138   1.107       .  S
C133        H139   1.086       .  S
C133        C134   1.370       .  D
C135        H140   1.086       .  S
C135        C136   1.361       .  D
C136       C3173   1.488       .  S
C141        C142   1.546       .  S
C141        C147   1.538   1_565  S
C141        C145   1.538       .  S
C141       C3109   1.553       .  S
C142        H149   1.084       .  S
C142        C143   1.361       .  D
C143       C3182   1.485       .  S
C143        C144   1.535       .  S
C144        C148   1.545       .  S
C144        C146   1.546       .  S
C144        H150   1.110       .  S
C145        H151   1.086       .  S
C145        C146   1.375       .  D
C147        H152   1.084       .  S
C147        C148   1.369   1_545  D
C148       C3246   1.496   1_565  S
C153        C154   1.554       .  S
C153        C159   1.539       .  S
C153        C157   1.538       .  S
C153       C3278   1.552       .  S
C154        H161   1.084       .  S
C154        C155   1.372       .  D
C155       C3045   1.497       .  S
C155        C156   1.536       .  S
C156        C160   1.537       .  S
C156        C158   1.536       .  S
C156        H162   1.106       .  S
C157        H163   1.086       .  S
C157        C158   1.371       .  D
C159        H164   1.082       .  S
C159        C160   1.362       .  D
C160       C3077   1.483       .  S
C165        C166   1.547       .  S
C165        C171   1.538       .  S
C165        C169   1.548       .  S
C165       C3214   1.551       .  S
C166        H173   1.082       .  S
C166        C167   1.363       .  D
C167       C3086   1.487   1_545  S
C167        C168   1.533       .  S
C168        C172   1.542       .  S
C168        C170   1.536       .  S
C168        H174   1.111       .  S
C169        H175   1.086       .  S
C169        C170   1.374       .  D
C170        C202   1.476       .  S
C171        H176   1.086       .  S
C171        C172   1.361       .  D
C172       C3022   1.486       .  S
C177        C178   1.539       .  S
C177        C183   1.536       .  S
C177        C181   1.553       .  S
C177       C3118   1.552       .  S
C178        H185   1.086   1_565  S
C178        C179   1.369       .  D
C179       C3013   1.502       .  S
C179        C180   1.543       .  S
C180        C184   1.531       .  S
C180        C182   1.542       .  S
C180        H186   1.105       .  S
C181        H187   1.083   1_565  S
C181        C182   1.380       .  D
C182        C215   1.484   1_565  S
C183        H188   1.086       .  S
C183        C184   1.360       .  D
C184       C2990   1.483       .  S
C189        C190   1.534       .  S
C189        C195   1.531       .  S
C189        C193   1.553       .  S
C189       C3150   1.546       .  S
C190        H197   1.084       .  S
C190        C191   1.365       .  D
C191       C2981   1.486       .  S
C191        C192   1.535       .  S
C192        C196   1.539       .  S
C192        C194   1.539       .  S
C192        H198   1.107       .  S
C193        H199   1.083       .  S
C193        C194   1.376       .  D
C195        H200   1.087       .  S
C195        C196   1.361       .  D
C196       C3054   1.491       .  S
In201       O203   2.228       .  S
In201       O204   2.242       .  S
In201       O212   2.230       .  S
In201       O206   2.279       .  S
In201       O208   2.240       .  S
In201       O209   2.258       .  S
In201       O210   2.258       .  S
In201       O213   2.205       .  S
C202        O208   1.264       .  A
C202        O210   1.260       .  A
O203        C211   1.264       .  A
O204        C211   1.264       .  A
C205        O212   1.260       .  A
C205        O206   1.267       .  A
C205       C2917   1.494       .  S
C207        O209   1.267       .  A
C207        O213   1.258       .  A
C207       C2949   1.485       .  S
C211       C2885   1.484       .  S
In214       O216   2.235       .  S
In214       O217   2.258       .  S
In214       O225   2.225       .  S
In214       O219   2.288   1_545  S
In214       O221   2.270   1_545  S
In214       O222   2.219       .  S
In214       O223   2.256       .  S
In214       O226   2.255       .  S
C215        O221   1.264   1_545  A
C215        O223   1.257       .  A
O216        C224   1.259       .  A
O217        C224   1.260       .  A
C218        O225   1.259       .  A
C218        O219   1.268   1_545  A
C218       C2862   1.489       .  S
C220        O222   1.263       .  A
C220        O226   1.265       .  A
C220       C2821   1.486       .  S
C224       C2958   1.478       .  S
In227       O229   2.200       .  S
In227       O230   2.255       .  S
In227       O238   2.225       .  S
In227       O232   2.279       .  S
In227       O234   2.262       .  S
In227       O235   2.225       .  S
In227       O236   2.243       .  S
In227       O239   2.238       .  S
C228        O234   1.265       .  A
C228        O236   1.260       .  A
C228        C342   1.481       .  S
O229        C237   1.258       .  A
O230        C237   1.264       .  A
C231        O238   1.260       .  A
C231        O232   1.267       .  A
C231       C2926   1.480       .  S
C233        O235   1.264       .  A
C233        O239   1.265       .  A
C233       C2757   1.474       .  S
C237       C2789   1.474       .  S
In240       O242   2.254       .  S
In240       O243   2.226       .  S
In240       O251   2.226       .  S
In240       O245   2.291   1_545  S
In240       O247   2.267   1_545  S
In240       O248   2.248       .  S
In240       O249   2.258       .  S
In240       O252   2.224       .  S
C241        O247   1.260       .  A
C241        O249   1.257   1_565  A
C241        C306   1.482       .  S
O242        C250   1.265       .  A
O243        C250   1.260       .  A
C244        O251   1.258       .  A
C244        O245   1.267   1_545  A
C244       C2853   1.487   1_545  S
C246        O248   1.262       .  A
C246        O252   1.259       .  A
C246       C2798   1.474       .  S
C250       C2734   1.488       .  S
C253        C254   1.552       .  S
C253        C259   1.534       .  S
C253        C257   1.536       .  S
C253       C2638   1.546       .  S
C254        H261   1.081   1_565  S
C254        C255   1.372       .  D
C255       C2693   1.496       .  S
C255        C256   1.537       .  S
C256        C260   1.543       .  S
C256        C258   1.537       .  S
C256        H262   1.104       .  S
C257        H263   1.086   1_565  S
C257        C258   1.368       .  D
C259        H264   1.087       .  S
C259        C260   1.360       .  D
C260       C2661   1.484       .  S
C265        C266   1.544       .  S
C265        C271   1.548       .  S
C265        C269   1.539       .  S
C265       C2565   1.550       .  S
C266        H273   1.086       .  S
C266        C267   1.369       .  D
C267       C2670   1.496       .  S
C267        C268   1.536       .  S
C268        C272   1.535       .  S
C268        C270   1.536       .  S
C268        H274   1.104       .  S
C269        H275   1.086       .  S
C269        C270   1.369       .  D
C271        H276   1.076       .  S
C271        C272   1.364       .  D
C272       C2597   1.485       .  S
C277        C278   1.535       .  S
C277        C283   1.547       .  S
C277        C281   1.539       .  S
C277       C2501   1.548       .  S
C278        H285   1.086       .  S
C278        C279   1.361       .  D
C279       C2606   1.483       .  S
C279        C280   1.543       .  S
C280        C284   1.539       .  S
C280        C282   1.543       .  S
C280        H286   1.111       .  S
C281        H287   1.086       .  S
C281        C282   1.372       .  D
C282        C389   1.480       .  S
C283        H288   1.082       .  S
C283        C284   1.365       .  D
C284       C2533   1.490       .  S
C289        C290   1.538       .  S
C289        C295   1.531       .  S
C289        C293   1.551       .  S
C289       C2478   1.549       .  S
C290        H297   1.086   1_545  S
C290        C291   1.366       .  D
C291       C2542   1.496   1_545  S
C291        C292   1.539       .  S
C292        C296   1.533       .  S
C292        C294   1.543       .  S
C292        H298   1.105       .  S
C293        H299   1.082       .  S
C293        C294   1.378       .  D
C294        C376   1.480       .  S
C295        H300   1.086       .  S
C295        C296   1.360       .  D
C296       C2702   1.479       .  S
C301        C302   1.537       .  S
C301        C307   1.535       .  S
C301        C305   1.553       .  S
C301       C2629   1.547       .  S
C302        H309   1.087       .  S
C302        C303   1.365       .  D
C303       C2405   1.479       .  S
C303        C304   1.532       .  S
C304        C308   1.543       .  S
C304        C306   1.541       .  S
C304        H310   1.108       .  S
C305        H311   1.082   1_565  S
C305        C306   1.375       .  D
C307        H312   1.087       .  S
C307        C308   1.363       .  D
C308       C2446   1.496       .  S
C313        C314   1.542       .  S
C313        C319   1.544       .  S
C313        C317   1.545       .  S
C313       C2574   1.550       .  S
C314        H321   1.087       .  S
C314        C315   1.360       .  D
C315       C2373   1.485       .  S
C315        C316   1.532       .  S
C316        C320   1.537       .  S
C316        C318   1.542       .  S
C316        H322   1.111       .  S
C317        H323   1.076       .  S
C317        C318   1.373       .  D
C319        H324   1.083       .  S
C319        C320   1.363       .  D
C320       C2414   1.494       .  S
C325        C326   1.529       .  S
C325        C331   1.545       .  S
C325        C329   1.550       .  S
C325       C2510   1.551       .  S
C326        H333   1.087       .  S
C326        C327   1.358       .  D
C327       C2341   1.471       .  S
C327        C328   1.532       .  S
C328        C332   1.544       .  S
C328        C330   1.533       .  S
C328        H334   1.100       .  S
C329        H335   1.081       .  S
C329        C330   1.372       .  D
C331        H336   1.082       .  S
C331        C332   1.374       .  D
C332       C2382   1.512       .  S
C337        C338   1.551       .  S
C337        C343   1.536       .  S
C337        C341   1.533       .  S
C337       C2469   1.549       .  S
C338        H345   1.085       .  S
C338        C339   1.367       .  D
C339       C2437   1.502       .  S
C339        C340   1.541       .  S
C340        C344   1.543       .  S
C340        C342   1.544       .  S
C340        H346   1.106       .  S
C341        H347   1.086       .  S
C341        C342   1.370       .  D
C343        H348   1.083       .  S
C343        C344   1.368       .  D
C344       C2350   1.493   1_545  S
In349       O351   2.240       .  S
In349       O352   2.220       .  S
In349       O360   2.235       .  S
In349       O354   2.278       .  S
In349       O356   2.248       .  S
In349       O357   2.243       .  S
In349       O358   2.260       .  S
In349       O361   2.225       .  S
C350        O356   1.262       .  A
C350        O358   1.258       .  A
O351        C359   1.262       .  A
O352        C359   1.262       .  A
C353        O360   1.258       .  A
C353        O354   1.265       .  A
C353       C2277   1.482       .  S
C355        O357   1.263       .  A
C355        O361   1.260       .  A
C355       C2318   1.483   1_545  S
C359       C2245   1.480       .  S
In362       O364   2.216       .  S
In362       O365   2.248       .  S
In362       O373   2.227       .  S
In362       O367   2.276       .  S
In362       O369   2.258       .  S
In362       O370   2.218       .  S
In362       O371   2.246       .  S
In362       O374   2.238       .  S
C363        O369   1.264       .  A
C363        O371   1.258       .  A
O364        C372   1.258       .  A
O365        C372   1.261       .  A
C366        O373   1.259       .  A
C366        O367   1.268       .  A
C366       C2213   1.492       .  S
C368        O370   1.262       .  A
C368        O374   1.265       .  A
C368       C2181   1.478       .  S
C372       C2309   1.462       .  S
In375       O377   2.221       .  S
In375       O378   2.266       .  S
In375       O386   2.229       .  S
In375       O380   2.281       .  S
In375       O382   2.269       .  S
In375       O383   2.214       .  S
In375       O384   2.248       .  S
In375       O387   2.241       .  S
C376        O382   1.262       .  A
C376        O384   1.256       .  A
O377        C385   1.258       .  A
O378        C385   1.260       .  A
C379        O386   1.259       .  A
C379        O380   1.268       .  A
C379       C2286   1.496       .  S
C381        O383   1.262       .  A
C381        O387   1.265       .  A
C381       C2126   1.479       .  S
C385       C2158   1.476   1_545  S
In388       O390   2.229       .  S
In388       O391   2.239       .  S
In388       O399   2.231       .  S
In388       O393   2.272       .  S
In388       O395   2.267       .  S
In388       O396   2.258       .  S
In388       O397   2.245       .  S
In388       O400   2.198       .  S
C389        O395   1.263       .  A
C389        O397   1.259       .  A
O390        C398   1.263       .  A
O391        C398   1.264       .  A
C392        O399   1.260       .  A
C392        O393   1.266       .  A
C392       C2222   1.480       .  S
C394        O396   1.266       .  A
C394        O400   1.258       .  A
C394       C2149   1.484       .  S
C398       C2085   1.478       .  S
In401       O403   2.266       .  S
In401       O404   2.223       .  S
In401       O412   2.240       .  S
In401       O406   2.292       .  S
In401       O408   2.279       .  S
In401       O409   2.248       .  S
In401       O410   2.258       .  S
In401       O413   2.235       .  S
C402        O408   1.262       .  A
C402        O410   1.255       .  A
C402        C582   1.484       .  S
O403        C411   1.264       .  A
O404        C411   1.261       .  A
C405        O412   1.259       .  A
C405        O406   1.266       .  A
C405       C2021   1.490       .  S
C407        O409   1.261       .  A
C407        O413   1.260       .  A
C407       C2053   1.476       .  S
C411       C2830   1.475       .  S
In414       O416   2.210       .  S
In414       O417   2.258       .  S
In414       O425   2.233       .  S
In414       O419   2.273       .  S
In414       O421   2.249       .  S
In414       O422   2.227       .  S
In414       O423   2.248       .  S
In414       O426   2.238       .  S
C415        O421   1.264       .  A
C415        O423   1.261       .  A
C415        C570   1.477       .  S
O416        C424   1.259       .  A
O417        C424   1.262       .  A
C418        O425   1.259       .  A
C418        O419   1.265       .  A
C418       C1989   1.489       .  S
C420        O422   1.263       .  A
C420        O426   1.263       .  A
C420       C3726   1.473       .  S
C424       C2062   1.467       .  S
In427       O429   2.218       .  S
In427       O430   2.249       .  S
In427       O438   2.220       .  S
In427       O432   2.285       .  S
In427       O434   2.252       .  S
In427       O435   2.216       .  S
In427       O436   2.249       .  S
In427       O439   2.263       .  S
C428        O434   1.259       .  A
C428        O436   1.260       .  A
C428        C706   1.476       .  S
O429        C437   1.258       .  A
O430        C437   1.260       .  A
C431        O438   1.256       .  A
C431        O432   1.264       .  A
C431       C2030   1.478       .  S
C433        O435   1.261       .  A
C433        O439   1.267       .  A
C433       C2725   1.477       .  S
C437       C1957   1.474       .  S
In440       O442   2.238       .  S
In440       O443   2.230       .  S
In440       O451   2.226       .  S
In440       O445   2.286       .  S
In440       O447   2.283       .  S
In440       O448   2.250       .  S
In440       O449   2.235       .  S
In440       O452   2.216       .  S
C441        O447   1.266       .  A
C441        O449   1.258       .  A
C441        C742   1.484       .  S
O442        C450   1.265       .  A
O443        C450   1.263       .  A
C444        O451   1.260       .  A
C444        O445   1.269       .  A
C444       C1998   1.491       .  S
C446        O448   1.262       .  A
C446        O452   1.260       .  A
C446       C1966   1.464       .  S
C450       C3630   1.476       .  S
In453       O455   2.228       .  S
In453       O456   2.236       .  S
In453       O464   2.215       .  S
In453       O458   2.272       .  S
In453       O460   2.256       .  S
In453       O461   2.251       .  S
In453       O462   2.242       .  S
In453       O465   2.200       .  S
C454        O460   1.263       .  A
C454        O462   1.260       .  A
C454        C534   1.476       .  S
O455        C463   1.263       .  A
O456        C463   1.263       .  A
C457        O464   1.258       .  A
C457        O458   1.267       .  A
C457       C1893   1.480       .  S
C459        O461   1.264       .  A
C459        O465   1.261       .  A
C459       C1934   1.481       .  S
C463       C2190   1.475       .  S
In466       O468   2.232       .  S
In466       O469   2.246       .  S
In466       O477   2.229       .  S
In466       O471   2.294       .  S
In466       O473   2.264       .  S
In466       O474   2.206       .  S
In466       O475   2.249       .  S
In466       O478   2.256       .  S
C467        O473   1.264       .  A
C467        O475   1.258       .  A
C467        C546   1.481       .  S
O468        C476   1.261       .  A
O469        C476   1.258       .  A
C470        O477   1.258       .  A
C470        O471   1.266       .  A
C470       C1861   1.495       .  S
C472        O474   1.260       .  A
C472        O478   1.264       .  A
C472       C3470   1.470       .  S
C476       C1925   1.465       .  S
In479       O481   2.213       .  S
In479       O482   2.256       .  S
In479       O490   2.233       .  S
In479       O484   2.255       .  S
In479       O486   2.243       .  S
In479       O487   2.231       .  S
In479       O488   2.237       .  S
In479       O491   2.221       .  S
C480        O486   1.263       .  A
C480        O488   1.259       .  A
C480        C670   1.469       .  S
O481        C489   1.259       .  A
O482        C489   1.263       .  A
C483        O490   1.261       .  A
C483        O484   1.264       .  A
C483       C1902   1.480       .  S
C485        O487   1.265       .  A
C485        O491   1.262       .  A
C485       C2094   1.479       .  S
C489       C1829   1.483       .  S
In492       O494   2.243       .  S
In492       O495   2.222       .  S
In492       O503   2.246       .  S
In492       O497   2.281       .  S
In492       O499   2.255       .  S
In492       O500   2.261       .  S
In492       O501   2.262       .  S
In492       O504   2.229       .  S
C493        O499   1.262       .  A
C493        O501   1.258       .  A
C493        C658   1.481       .  S
O494        C502   1.261       .  A
O495        C502   1.261       .  A
C496        O503   1.258       .  A
C496        O497   1.263       .  A
C496       C1870   1.486       .  S
C498        O500   1.261       .  A
C498        O504   1.260       .  A
C498       C1838   1.475       .  S
C502       C3374   1.475       .  S
C505        C506   1.542       .  S
C505        C511   1.548       .  S
C505        C509   1.544       .  S
C505       C1733   1.552       .  S
C506        H513   1.086       .  S
C506        C507   1.365       .  D
C507       C1765   1.478       .  S
C507        C508   1.531       .  S
C508        C512   1.532       .  S
C508        C510   1.535       .  S
C508        H514   1.111       .  S
C509        H515   1.086       .  S
C509        C510   1.370       .  D
C510        C763   1.471       .  S
C511        H516   1.081   1_655  S
C511        C512   1.363       .  D
C512       C1797   1.482   1_655  S
C517        C518   1.553       .  S
C517        C523   1.537       .  S
C517        C521   1.539       .  S
C517       C1669   1.554       .  S
C518        H525   1.081       .  S
C518        C519   1.372       .  D
C519       C1806   1.502       .  S
C519        C520   1.539       .  S
C520        C524   1.532       .  S
C520        C522   1.544       .  S
C520        H526   1.103       .  S
C521        H527   1.086       .  S
C521        C522   1.373       .  D
C522        C750   1.485       .  S
C523        H528   1.086       .  S
C523        C524   1.360       .  D
C524       C1701   1.482       .  S
C529        C530   1.541       .  S
C529        C535   1.548       .  S
C529        C533   1.539       .  S
C529       C1605   1.548       .  S
C530        H537   1.086       .  S
C530        C531   1.370       .  D
C531       C1710   1.489       .  S
C531        C532   1.538       .  S
C532        C536   1.536       .  S
C532        C534   1.537       .  S
C532        H538   1.110       .  S
C533        H539   1.086       .  S
C533        C534   1.367       .  D
C535        H540   1.081       .  S
C535        C536   1.361       .  D
C536       C1637   1.484       .  S
C541        C542   1.536       .  S
C541        C547   1.534       .  S
C541        C545   1.548       .  S
C541       C1573   1.547       .  S
C542        H549   1.087       .  S
C542        C543   1.360       .  D
C543       C1646   1.491       .  S
C543        C544   1.534       .  S
C544        C548   1.545       .  S
C544        C546   1.542       .  S
C544        H550   1.106       .  S
C545        H551   1.084       .  S
C545        C546   1.377       .  D
C547        H552   1.082       .  S
C547        C548   1.369       .  D
C548       C1774   1.498       .  S
C553        C554   1.536       .  S
C553        C559   1.550       .  S
C553        C557   1.546       .  S
C553       C1614   1.553       .  S
C554        H561   1.087       .  S
C554        C555   1.361       .  D
C555       C1509   1.475       .  S
C555        C556   1.532       .  S
C556        C560   1.529       .  S
C556        C558   1.537       .  S
C556        H562   1.111       .  S
C557        H563   1.085       .  S
C557        C558   1.376       .  D
C558        C615   1.479       .  S
C559        H564   1.080       .  S
C559        C560   1.362       .  D
C560       C1541   1.478       .  S
C565        C566   1.535       .  S
C565        C571   1.537       .  S
C565        C569   1.547       .  S
C565       C1582   1.546       .  S
C566        H573   1.087       .  S
C566        C567   1.360       .  D
C567       C1477   1.489       .  S
C567        C568   1.534       .  S
C568        C572   1.545       .  S
C568        C570   1.541       .  S
C568        H574   1.105       .  S
C569        H575   1.084       .  S
C569        C570   1.372       .  D
C571        H576   1.081       .  S
C571        C572   1.371       .  D
C572       C1518   1.500       .  S
C577        C578   1.537       .  S
C577        C583   1.548       .  S
C577        C581   1.546       .  S
C577       C1742   1.559       .  S
C578        H585   1.085       .  S
C578        C579   1.364       .  D
C579       C1445   1.484   1_655  S
C579        C580   1.533       .  S
C580        C584   1.535       .  S
C580        C582   1.544       .  S
C580        H586   1.111       .  S
C581        H587   1.084       .  S
C581        C582   1.378       .  D
C583        H588   1.079       .  S
C583        C584   1.357       .  D
C584       C1486   1.485       .  S
C589        C590   1.532       .  S
C589        C595   1.535       .  S
C589        C593   1.551       .  S
C589       C1678   1.545       .  S
C590        H597   1.087       .  S
C590        C591   1.364       .  D
C591       C1550   1.491       .  S
C591        C592   1.543       .  S
C592        C596   1.538       .  S
C592        C594   1.539       .  S
C592        H598   1.101       .  S
C593        H599   1.083       .  S
C593        C594   1.377       .  D
C594        C602   1.479       .  S
C595        H600   1.087       .  S
C595        C596   1.364       .  D
C596       C1454   1.496       .  S
In601       O603   2.226       .  S
In601       O604   2.260       .  S
In601       O612   2.223       .  S
In601       O606   2.274       .  S
In601       O608   2.263       .  S
In601       O609   2.230       .  S
In601       O610   2.251       .  S
In601       O613   2.231       .  S
C602        O608   1.263       .  A
C602        O610   1.257       .  A
O603        C611   1.258       .  A
O604        C611   1.261       .  A
C605        O612   1.260       .  A
C605        O606   1.267       .  A
C605       C1381   1.487       .  S
C607        O609   1.263       .  A
C607        O613   1.263       .  A
C607       C2894   1.472       .  S
C611       C1413   1.469       .  S
In614       O616   2.258       .  S
In614       O617   2.217       .  S
In614       O625   2.229       .  S
In614       O619   2.280       .  S
In614       O621   2.260       .  S
In614       O622   2.252       .  S
In614       O623   2.255       .  S
In614       O626   2.232       .  S
C615        O621   1.262       .  A
C615        O623   1.258       .  A
O616        C624   1.265       .  A
O617        C624   1.262       .  A
C618        O625   1.258       .  A
C618        O619   1.266       .  A
C618       C1349   1.487       .  S
C620        O622   1.260       .  A
C620        O626   1.259       .  A
C620       C1422   1.486       .  S
C624       C3790   1.479       .  S
In627       O629   2.218       .  S
In627       O630   2.242       .  S
In627       O638   2.218       .  S
In627       O632   2.270       .  S
In627       O634   2.255       .  S
In627       O635   2.270       .  S
In627       O636   2.256       .  S
In627       O639   2.208       .  S
C628        O634   1.265       .  A
C628        O636   1.260       .  A
C628        C718   1.481       .  S
O629        C637   1.262       .  A
O630        C637   1.268       .  A
C631        O638   1.261       .  A
C631        O632   1.269       .  A
C631       C1390   1.481       .  S
C633        O635   1.267       .  A
C633        O639   1.258       .  A
C633       C1326   1.481       .  S
C637       C2766   1.484       .  S
In640       O642   2.255       .  S
In640       O643   2.237       .  S
In640       O651   2.292       .  S
In640       O645   2.241       .  S
In640       O647   2.253       .  S
In640       O648   2.220       .  S
In640       O649   2.276       .  S
In640       O652   2.251       .  S
C641        O647   1.264       .  A
C641        O649   1.258       .  A
C641        C730   1.486       .  S
O642        C650   1.261       .  A
O643        C650   1.261       .  A
C644        O651   1.265       .  A
C644        O645   1.256       .  A
C644       C1358   1.497       .  S
C646        O648   1.259       .  A
C646        O652   1.262       .  A
C646       C3662   1.476       .  S
C650       C1317   1.482       .  S
C653        C654   1.534       .  S
C653        C659   1.537       .  S
C653        C657   1.552       .  S
C653       C1221   1.545       .  S
C654        H661   1.087       .  S
C654        C655   1.362       .  D
C655       C1253   1.485       .  S
C655        C656   1.531       .  S
C656        C660   1.543       .  S
C656        C658   1.539       .  S
C656        H662   1.107       .  S
C657        H663   1.082       .  S
C657        C658   1.377       .  D
C659        H664   1.081       .  S
C659        C660   1.364       .  D
C660       C1285   1.497       .  S
C665        C666   1.536       .  S
C665        C671   1.545       .  S
C665        C669   1.538       .  S
C665       C1157   1.544       .  S
C666        H673   1.086       .  S
C666        C667   1.361       .  D
C667       C1294   1.478       .  S
C667        C668   1.539       .  S
C668        C672   1.538       .  S
C668        C670   1.534       .  S
C668        H674   1.110       .  S
C669        H675   1.086       .  S
C669        C670   1.369       .  D
C671        H676   1.082       .  S
C671        C672   1.367       .  D
C672       C1189   1.492       .  S
C677        C678   1.541       .  S
C677        C683   1.545       .  S
C677        C681   1.536       .  S
C677       C1093   1.542       .  S
C678        H685   1.086       .  S
C678        C679   1.364       .  D
C679       C1125   1.486   1_655  S
C679        C680   1.535       .  S
C680        C684   1.535       .  S
C680        C682   1.535       .  S
C680        H686   1.108       .  S
C681        H687   1.086       .  S
C681        C682   1.368       .  D
C682        C789   1.472       .  S
C683        H688   1.083       .  S
C683        C684   1.366       .  D
C684       C1262   1.481       .  S
C689        C690   1.544       .  S
C689        C695   1.543       .  S
C689        C693   1.542       .  S
C689       C1070   1.550       .  S
C690        H697   1.084       .  S
C690        C691   1.367       .  D
C691       C1198   1.482       .  S
C691        C692   1.533       .  S
C692        C696   1.532       .  S
C692        C694   1.539       .  S
C692        H698   1.109       .  S
C693        H699   1.086       .  S
C693        C694   1.373       .  D
C694        C776   1.482       .  S
C695        H700   1.086       .  S
C695        C696   1.361       .  D
C696       C1134   1.478       .  S
C701        C702   1.544       .  S
C701        C707   1.539       .  S
C701        C705   1.549       .  S
C701       C1102   1.553       .  S
C702        H709   1.087       .  S
C702        C703   1.364       .  D
C703       C1006   1.489       .  S
C703        C704   1.536       .  S
C704        C708   1.533       .  S
C704        C706   1.541       .  S
C704        H710   1.111       .  S
C705        H711   1.074       .  S
C705        C706   1.370       .  D
C707        H712   1.087       .  S
C707        C708   1.362       .  D
C708       C1029   1.480   1_655  S
C713        C714   1.543       .  S
C713        C719   1.532       .  S
C713        C717   1.557       .  S
C713       C1061   1.556       .  S
C714        H721   1.087       .  S
C714        C715   1.364       .  D
C715       C1038   1.491       .  S
C715        C716   1.533       .  S
C716        C720   1.537       .  S
C716        C718   1.537       .  S
C716        H722   1.106       .  S
C717        H723   1.077       .  S
C717        C718   1.379       .  D
C719        H724   1.088       .  S
C719        C720   1.358       .  D
C720        C965   1.480       .  S
C725        C726   1.539       .  S
C725        C731   1.535       .  S
C725        C729   1.562       .  S
C725       C1166   1.556       .  S
C726        H733   1.085       .  S
C726        C727   1.372       .  D
C727        C974   1.509       .  S
C727        C728   1.541       .  S
C728        C732   1.534       .  S
C728        C730   1.531       .  S
C728        H734   1.096       .  S
C729        H735   1.075       .  S
C729        C730   1.378       .  D
C731        H736   1.087       .  S
C731        C732   1.354       .  D
C732        C933   1.475       .  S
C737        C738   1.544       .  S
C737        C743   1.547       .  S
C737        C741   1.532       .  S
C737       C1230   1.555       .  S
C738        H745   1.072       .  S
C738        C739   1.362       .  D
C739        C942   1.502       .  S
C739        C740   1.543       .  S
C740        C744   1.537       .  S
C740        C742   1.549       .  S
C740        H746   1.109       .  S
C741        H747   1.086       .  S
C741        C742   1.373       .  D
C743        H748   1.085       .  S
C743        C744   1.366       .  D
C744        C997   1.497       .  S
In749       O751   2.220       .  S
In749       O752   2.249       .  S
In749       O760   2.217       .  S
In749       O754   2.285       .  S
In749       O756   2.269       .  S
In749       O757   2.214       .  S
In749       O758   2.254       .  S
In749       O761   2.247       .  S
C750        O756   1.263       .  A
C750        O758   1.259       .  A
O751        C759   1.261       .  A
O752        C759   1.260       .  A
C753        O760   1.257       .  A
C753        O754   1.267       .  A
C753        C869   1.482       .  S
C755        O757   1.258       .  A
C755        O761   1.263       .  A
C755       C2254   1.471       .  S
C759        C910   1.468       .  S
In762       O764   2.224       .  S
In762       O765   2.241       .  S
In762       O773   2.227       .  S
In762       O767   2.258       .  S
In762       O769   2.240       .  S
In762       O770   2.264       .  S
In762       O771   2.245       .  S
In762       O774   2.191       .  S
C763        O769   1.262       .  A
C763        O771   1.260       .  A
O764        C772   1.263       .  A
O765        C772   1.265       .  A
C766        O773   1.262       .  A
C766        O767   1.265       .  A
C766        C837   1.487       .  S
C768        O770   1.267   1_455  A
C768        O774   1.256   1_455  A
C768        C901   1.482       .  S
C772       C3525   1.473       .  S
In775       O777   2.249       .  S
In775       O778   2.223       .  S
In775       O786   2.235       .  S
In775       O780   2.283       .  S
In775       O782   2.260       .  S
In775       O783   2.248       .  S
In775       O784   2.260       .  S
In775       O787   2.234       .  S
C776        O782   1.262       .  A
C776        O784   1.259       .  A
O777        C785   1.262       .  A
O778        C785   1.261       .  A
C779        O786   1.257       .  A
C779        O780   1.263       .  A
C779        C878   1.483       .  S
C781        O783   1.261       .  A
C781        O787   1.262       .  A
C781        C814   1.488       .  S
C785       C2117   1.469       .  S
In788       O790   2.209       .  S
In788       O791   2.263       .  S
In788       O799   2.222       .  S
In788       O793   2.260       .  S
In788       O795   2.247       .  S
In788       O796   2.231       .  S
In788       O797   2.237       .  S
In788       O800   2.231       .  S
C789        O795   1.264       .  A
C789        O797   1.259       .  A
O790        C798   1.257       .  A
O791        C798   1.263       .  A
C792        O799   1.261       .  A
C792        O793   1.267       .  A
C792        C846   1.480       .  S
C794        O796   1.264       .  A
C794        O800   1.263       .  A
C794       C3406   1.473       .  S
C798        C805   1.464   1_655  S
C801        C802   1.401       .  A
C801        C806   1.398       .  A
C801        H811   1.085       .  S
C802        C807   1.482       .  S
C802        C803   1.414       .  A
C803        C808   1.506       .  S
C803        C804   1.405       .  A
C804        C805   1.401       .  A
C804        H809   1.084       .  S
C805        C806   1.413       .  A
C806        C810   1.509       .  S
C807        C812   1.412       .  A
C807        C816   1.400       .  A
C808        H824   1.110       .  S
C808        H825   1.110       .  S
C808        H826   1.111       .  S
C810        H821   1.111       .  S
C810        H822   1.110       .  S
C810        H823   1.109       .  S
C812        C817   1.510       .  S
C812        C813   1.399       .  A
C813        C814   1.405       .  A
C813        H818   1.084       .  S
C814        C815   1.421       .  A
C815        C819   1.507       .  S
C815        C816   1.407       .  A
C816        H820   1.084       .  S
C817        H827   1.111       .  S
C817        H828   1.109       .  S
C817        H829   1.111       .  S
C819        H830   1.110       .  S
C819        H831   1.110       .  S
C819        H832   1.111       .  S
C833        C834   1.401       .  A
C833        C838   1.408       .  A
C833        H843   1.085       .  S
C834        C839   1.484       .  S
C834        C835   1.409       .  A
C835        C840   1.508       .  S
C835        C836   1.401       .  A
C836        C837   1.407       .  A
C836        H841   1.084       .  S
C837        C838   1.422       .  A
C838        C842   1.508       .  S
C839        C844   1.410       .  A
C839        C848   1.402       .  A
C840        H856   1.110       .  S
C840        H857   1.110       .  S
C840        H858   1.111   1_655  S
C842        H853   1.111       .  S
C842        H854   1.110       .  S
C842        H855   1.102       .  S
C844        C849   1.507       .  S
C844        C845   1.401       .  A
C845        C846   1.404       .  A
C845        H850   1.085       .  S
C846        C847   1.420       .  A
C847        C851   1.508       .  S
C847        C848   1.408       .  A
C848        H852   1.084       .  S
C849        H859   1.111       .  S
C849        H860   1.110       .  S
C849        H861   1.110       .  S
C851        H862   1.110       .  S
C851        H863   1.104       .  S
C851        H864   1.111       .  S
C865        C866   1.405       .  A
C865        C870   1.411       .  A
C865        H875   1.084       .  S
C866        C871   1.489       .  S
C866        C867   1.411       .  A
C867        C872   1.508       .  S
C867        C868   1.401       .  A
C868        C869   1.404       .  A
C868        H873   1.085       .  S
C869        C870   1.417       .  A
C870        C874   1.506       .  S
C871        C876   1.411       .  A
C871        C880   1.404       .  A
C872        H888   1.110       .  S
C872        H889   1.110       .  S
C872        H890   1.111       .  S
C874        H885   1.111       .  S
C874        H886   1.110       .  S
C874        H887   1.106       .  S
C876        C881   1.507       .  S
C876        C877   1.402       .  A
C877        C878   1.403       .  A
C877        H882   1.084       .  S
C878        C879   1.419       .  A
C879        C883   1.507       .  S
C879        C880   1.410       .  A
C880        H884   1.084       .  S
C881        H891   1.111       .  S
C881        H892   1.110       .  S
C881        H893   1.110       .  S
C883        H894   1.111       .  S
C883        H895   1.105       .  S
C883        H896   1.110       .  S
C897        C898   1.395       .  A
C897        C902   1.396       .  A
C897        H907   1.085       .  S
C898        C903   1.471       .  S
C898        C899   1.407       .  A
C899        C904   1.505       .  S
C899        C900   1.405       .  A
C900        C901   1.408       .  A
C900        H905   1.084       .  S
C901        C902   1.423       .  A
C902        C906   1.510       .  S
C903        C908   1.411       .  A
C903        C912   1.401       .  A
C904        H920   1.110       .  S
C904        H921   1.111       .  S
C904        H922   1.111       .  S
C906        H917   1.111       .  S
C906        H918   1.108       .  S
C906        H919   1.110       .  S
C908        C913   1.508       .  S
C908        C909   1.396       .  A
C909        C910   1.401       .  A
C909        H914   1.085       .  S
C910        C911   1.418       .  A
C911        C915   1.509       .  S
C911        C912   1.403       .  A
C912        H916   1.085       .  S
C913        H923   1.110       .  S
C913        H924   1.108       .  S
C913        H925   1.110       .  S
C915        H926   1.111       .  S
C915        H927   1.105       .  S
C915        H928   1.110       .  S
C929        C930   1.400       .  A
C929        C934   1.395       .  A
C929        H939   1.085       .  S
C930        C935   1.479   1_455  S
C930        C931   1.413       .  A
C931        C936   1.506       .  S
C931        C932   1.407       .  A
C932        C933   1.403       .  A
C932        H937   1.084       .  S
C933        C934   1.417       .  A
C934        C938   1.509       .  S
C935        C940   1.409       .  A
C935        C944   1.395       .  A
C936        H952   1.110       .  S
C936        H953   1.106       .  S
C936        H954   1.111       .  S
C938        H949   1.110       .  S
C938        H950   1.111       .  S
C938        H951   1.101       .  S
C940        C945   1.506       .  S
C940        C941   1.408       .  A
C941        C942   1.410       .  A
C941        H946   1.082       .  S
C942        C943   1.430       .  A
C943        C947   1.513       .  S
C943        C944   1.396       .  A
C944        H948   1.086       .  S
C945        H955   1.111       .  S
C945        H956   1.110   1_655  S
C945        H957   1.106       .  S
C947        H958   1.111       .  S
C947        H959   1.109       .  S
C947        H960   1.109       .  S
C961        C962   1.403       .  A
C961        C966   1.406       .  A
C961        H971   1.084       .  S
C962        C967   1.469       .  S
C962        C963   1.406       .  A
C963        C968   1.509       .  S
C963        C964   1.392       .  A
C964        C965   1.406       .  A
C964        H969   1.085       .  S
C965        C966   1.413       .  A
C966        C970   1.506       .  S
C967        C972   1.403       .  A
C967        C976   1.393       .  A
C968        H984   1.110       .  S
C968        H985   1.108       .  S
C968        H986   1.111       .  S
C970        H981   1.110       .  S
C970        H982   1.111       .  S
C970        H983   1.107       .  S
C972        C977   1.510       .  S
C972        C973   1.397       .  A
C973        C974   1.415       .  A
C973        H978   1.082       .  S
C974        C975   1.430       .  A
C975        C979   1.505       .  S
C975        C976   1.404       .  A
C976        H980   1.085       .  S
C977        H987   1.111       .  S
C977        H988   1.110       .  S
C977        H989   1.108       .  S
C979        H990   1.109       .  S
C979        H991   1.102       .  S
C979        H992   1.111       .  S
C993        C994   1.401       .  A
C993        C998   1.405       .  A
C993       H1003   1.084       .  S
C994        C999   1.492       .  S
C994        C995   1.414       .  A
C995       C1000   1.502       .  S
C995        C996   1.406       .  A
C996        C997   1.406       .  A
C996       H1001   1.085       .  S
C997        C998   1.421       .  A
C998       C1002   1.508       .  S
C999       C1004   1.413       .  A
C999       C1008   1.402       .  A
C1000      H1016   1.110       .  S
C1000      H1017   1.107       .  S
C1000      H1018   1.110       .  S
C1002      H1013   1.111       .  S
C1002      H1014   1.110       .  S
C1002      H1015   1.105       .  S
C1004      C1009   1.505       .  S
C1004      C1005   1.409       .  A
C1005      C1006   1.404       .  A
C1005      H1010   1.084       .  S
C1006      C1007   1.416       .  A
C1007      C1011   1.507       .  S
C1007      C1008   1.405       .  A
C1008      H1012   1.082       .  S
C1009      H1019   1.111       .  S
C1009      H1020   1.110       .  S
C1009      H1021   1.110       .  S
C1011      H1022   1.110       .  S
C1011      H1023   1.108       .  S
C1011      H1024   1.111       .  S
C1025      C1026   1.403       .  A
C1025      C1030   1.406       .  A
C1025      H1035   1.084       .  S
C1026      C1031   1.480       .  S
C1026      C1027   1.412       .  A
C1027      C1032   1.509       .  S
C1027      C1028   1.396       .  A
C1028      C1029   1.402       .  A
C1028      H1033   1.085       .  S
C1029      C1030   1.415       .  A
C1030      C1034   1.506       .  S
C1031      C1036   1.410       .  A
C1031      C1040   1.398       .  A
C1032      H1048   1.109       .  S
C1032      H1049   1.110       .  S
C1032      H1050   1.111       .  S
C1034      H1045   1.110       .  S
C1034      H1046   1.110       .  S
C1034      H1047   1.105   1_455  S
C1036      C1041   1.506       .  S
C1036      C1037   1.403       .  A
C1037      C1038   1.406       .  A
C1037      H1042   1.084       .  S
C1038      C1039   1.419       .  A
C1039      C1043   1.502       .  S
C1039      C1040   1.402       .  A
C1040      H1044   1.084       .  S
C1041      H1051   1.111       .  S
C1041      H1052   1.110       .  S
C1041      H1053   1.110       .  S
C1043      H1054   1.106       .  S
C1043      H1055   1.104       .  S
C1043      H1056   1.111       .  S
C1057      C1058   1.403       .  A
C1057      C1062   1.418       .  A
C1057      H1067   1.084       .  S
C1058      C1063   1.490       .  S
C1058      C1059   1.405       .  A
C1059      C1064   1.510       .  S
C1059      C1060   1.397       .  A
C1060      C1061   1.419       .  A
C1060      H1065   1.084       .  S
C1061      C1062   1.427       .  A
C1062      C1066   1.500       .  S
C1063      C1068   1.409       .  A
C1063      C1072   1.401       .  A
C1064      H1080   1.110       .  S
C1064      H1081   1.109       .  S
C1064      H1082   1.111       .  S
C1066      H1077   1.111       .  S
C1066      H1078   1.110       .  S
C1066      H1079   1.109       .  S
C1068      C1073   1.507       .  S
C1068      C1069   1.406       .  A
C1069      C1070   1.414       .  A
C1069      H1074   1.083       .  S
C1070      C1071   1.424       .  A
C1071      C1075   1.506       .  S
C1071      C1072   1.408       .  A
C1072      H1076   1.084       .  S
C1073      H1083   1.111       .  S
C1073      H1084   1.110       .  S
C1073      H1085   1.109       .  S
C1075      H1086   1.111       .  S
C1075      H1087   1.108       .  S
C1075      H1088   1.111       .  S
C1089      C1090   1.400       .  A
C1089      C1094   1.406       .  A
C1089      H1099   1.084       .  S
C1090      C1095   1.485       .  S
C1090      C1091   1.408       .  A
C1091      C1096   1.507       .  S
C1091      C1092   1.402       .  A
C1092      C1093   1.412       .  A
C1092      H1097   1.079       .  S
C1093      C1094   1.427       .  A
C1094      C1098   1.509       .  S
C1095      C1100   1.405       .  A
C1095      C1104   1.399       .  A
C1096      H1112   1.110       .  S
C1096      H1113   1.110       .  S
C1096      H1114   1.111       .  S
C1098      H1109   1.111   1_655  S
C1098      H1110   1.110       .  S
C1098      H1111   1.105       .  S
C1100      C1105   1.510       .  S
C1100      C1101   1.397       .  A
C1101      C1102   1.416       .  A
C1101      H1106   1.084       .  S
C1102      C1103   1.432       .  A
C1103      C1107   1.502       .  S
C1103      C1104   1.414       .  A
C1104      H1108   1.084       .  S
C1105      H1115   1.111       .  S
C1105      H1116   1.110       .  S
C1105      H1117   1.110       .  S
C1107      H1118   1.109       .  S
C1107      H1119   1.110       .  S
C1107      H1120   1.111       .  S
C1121      C1122   1.402       .  A
C1121      C1126   1.406       .  A
C1121      H1131   1.084       .  S
C1122      C1127   1.483       .  S
C1122      C1123   1.412       .  A
C1123      C1128   1.508       .  S
C1123      C1124   1.399       .  A
C1124      C1125   1.403       .  A
C1124      H1129   1.084       .  S
C1125      C1126   1.416       .  A
C1126      C1130   1.505   1_455  S
C1127      C1132   1.413       .  A
C1127      C1136   1.403       .  A
C1128      H1144   1.107       .  S
C1128      H1145   1.110       .  S
C1128      H1146   1.111       .  S
C1130      H1141   1.111       .  S
C1130      H1142   1.106       .  S
C1130      H1143   1.108       .  S
C1132      C1137   1.508       .  S
C1132      C1133   1.401       .  A
C1133      C1134   1.402       .  A
C1133      H1138   1.085       .  S
C1134      C1135   1.409       .  A
C1135      C1139   1.503       .  S
C1135      C1136   1.404       .  A
C1136      H1140   1.084       .  S
C1137      H1147   1.111       .  S
C1137      H1148   1.109       .  S
C1137      H1149   1.110       .  S
C1139      H1150   1.109       .  S
C1139      H1151   1.110       .  S
C1139      H1152   1.106       .  S
C1153      C1154   1.400       .  A
C1153      C1158   1.407       .  A
C1153      H1163   1.085       .  S
C1154      C1159   1.486       .  S
C1154      C1155   1.407       .  A
C1155      C1160   1.507       .  S
C1155      C1156   1.402       .  A
C1156      C1157   1.413       .  A
C1156      H1161   1.080       .  S
C1157      C1158   1.427       .  A
C1158      C1162   1.509       .  S
C1159      C1164   1.404       .  A
C1159      C1168   1.401       .  A
C1160      H1176   1.110       .  S
C1160      H1177   1.110       .  S
C1160      H1178   1.111       .  S
C1162      H1173   1.111       .  S
C1162      H1174   1.110       .  S
C1162      H1175   1.105       .  S
C1164      C1169   1.510       .  S
C1164      C1165   1.397       .  A
C1165      C1166   1.419       .  A
C1165      H1170   1.084       .  S
C1166      C1167   1.428       .  A
C1167      C1171   1.500       .  S
C1167      C1168   1.416       .  A
C1168      H1172   1.084       .  S
C1169      H1179   1.111       .  S
C1169      H1180   1.110       .  S
C1169      H1181   1.110       .  S
C1171      H1182   1.109       .  S
C1171      H1183   1.110       .  S
C1171      H1184   1.111       .  S
C1185      C1186   1.399       .  A
C1185      C1190   1.400       .  A
C1185      H1195   1.084       .  S
C1186      C1191   1.477       .  S
C1186      C1187   1.409       .  A
C1187      C1192   1.506       .  S
C1187      C1188   1.404       .  A
C1188      C1189   1.406       .  A
C1188      H1193   1.077       .  S
C1189      C1190   1.419       .  A
C1190      C1194   1.508       .  S
C1191      C1196   1.411       .  A
C1191      C1200   1.401       .  A
C1192      H1208   1.111       .  S
C1192      H1209   1.110       .  S
C1192      H1210   1.111       .  S
C1194      H1205   1.110       .  S
C1194      H1206   1.110       .  S
C1194      H1207   1.109       .  S
C1196      C1201   1.508       .  S
C1196      C1197   1.399       .  A
C1197      C1198   1.403       .  A
C1197      H1202   1.084       .  S
C1198      C1199   1.415       .  A
C1199      C1203   1.506       .  S
C1199      C1200   1.407       .  A
C1200      H1204   1.083       .  S
C1201      H1211   1.111       .  S
C1201      H1212   1.110       .  S
C1201      H1213   1.110       .  S
C1203      H1214   1.111       .  S
C1203      H1215   1.110       .  S
C1203      H1216   1.107       .  S
C1217      C1218   1.392       .  A
C1217      C1222   1.398       .  A
C1217      H1227   1.086       .  S
C1218      C1223   1.488       .  S
C1218      C1219   1.409       .  A
C1219      C1224   1.505       .  S
C1219      C1220   1.415       .  A
C1220      C1221   1.416       .  A
C1220      H1225   1.078       .  S
C1221      C1222   1.434       .  A
C1222      C1226   1.514       .  S
C1223      C1228   1.408       .  A
C1223      C1232   1.402       .  A
C1224      H1240   1.110       .  S
C1224      H1241   1.108       .  S
C1224      H1242   1.111       .  S
C1226      H1237   1.111       .  S
C1226      H1238   1.111       .  S
C1226      H1239   1.098       .  S
C1228      C1233   1.509       .  S
C1228      C1229   1.404       .  A
C1229      C1230   1.415       .  A
C1229      H1234   1.078       .  S
C1230      C1231   1.426       .  A
C1231      C1235   1.507       .  S
C1231      C1232   1.410       .  A
C1232      H1236   1.084       .  S
C1233      H1243   1.111       .  S
C1233      H1244   1.110       .  S
C1233      H1245   1.108       .  S
C1235      H1246   1.110       .  S
C1235      H1247   1.106       .  S
C1235      H1248   1.110       .  S
C1249      C1250   1.398       .  A
C1249      C1254   1.401       .  A
C1249      H1259   1.085       .  S
C1250      C1255   1.474       .  S
C1250      C1251   1.407       .  A
C1251      C1256   1.506       .  S
C1251      C1252   1.401       .  A
C1252      C1253   1.406       .  A
C1252      H1257   1.084       .  S
C1253      C1254   1.418       .  A
C1254      C1258   1.506       .  S
C1255      C1260   1.410       .  A
C1255      C1264   1.401       .  A
C1256      H1272   1.110       .  S
C1256      H1273   1.110       .  S
C1256      H1274   1.111       .  S
C1258      H1269   1.111       .  S
C1258      H1270   1.107       .  S
C1258      H1271   1.106       .  S
C1260      C1265   1.510       .  S
C1260      C1261   1.394       .  A
C1261      C1262   1.404       .  A
C1261      H1266   1.084       .  S
C1262      C1263   1.415       .  A
C1263      C1267   1.506       .  S
C1263      C1264   1.405       .  A
C1264      H1268   1.084       .  S
C1265      H1275   1.111       .  S
C1265      H1276   1.110       .  S
C1265      H1277   1.110       .  S
C1267      H1278   1.110       .  S
C1267      H1279   1.107       .  S
C1267      H1280   1.110       .  S
C1281      C1282   1.398       .  A
C1281      C1286   1.402       .  A
C1281      H1291   1.085   1_655  S
C1282      C1287   1.481   1_655  S
C1282      C1283   1.406       .  A
C1283      C1288   1.503       .  S
C1283      C1284   1.404       .  A
C1284      C1285   1.407       .  A
C1284      H1289   1.082       .  S
C1285      C1286   1.425       .  A
C1286      C1290   1.509       .  S
C1287      C1292   1.411       .  A
C1287      C1296   1.402       .  A
C1288      H1304   1.108       .  S
C1288      H1305   1.110       .  S
C1288      H1306   1.111       .  S
C1290      H1301   1.111       .  S
C1290      H1302   1.105       .  S
C1290      H1303   1.107       .  S
C1292      C1297   1.507       .  S
C1292      C1293   1.402       .  A
C1293      C1294   1.400       .  A
C1293      H1298   1.081       .  S
C1294      C1295   1.416       .  A
C1295      C1299   1.508       .  S
C1295      C1296   1.402       .  A
C1296      H1300   1.085       .  S
C1297      H1307   1.111       .  S
C1297      H1308   1.109       .  S
C1297      H1309   1.110       .  S
C1299      H1310   1.110       .  S
C1299      H1311   1.109       .  S
C1299      H1312   1.111       .  S
C1313      C1314   1.399       .  A
C1313      C1318   1.401       .  A
C1313      H1323   1.085       .  S
C1314      C1319   1.485       .  S
C1314      C1315   1.413       .  A
C1315      C1320   1.506       .  S
C1315      C1316   1.408       .  A
C1316      C1317   1.406       .  A
C1316      H1321   1.084       .  S
C1317      C1318   1.412       .  A
C1318      C1322   1.500       .  S
C1319      C1324   1.413       .  A
C1319      C1328   1.400       .  A
C1320      H1336   1.109       .  S
C1320      H1337   1.110       .  S
C1320      H1338   1.111       .  S
C1322      H1333   1.110       .  S
C1322      H1334   1.105       .  S
C1322      H1335   1.109       .  S
C1324      C1329   1.506       .  S
C1324      C1325   1.407       .  A
C1325      C1326   1.405       .  A
C1325      H1330   1.084       .  S
C1326      C1327   1.417       .  A
C1327      C1331   1.509       .  S
C1327      C1328   1.401       .  A
C1328      H1332   1.084       .  S
C1329      H1339   1.111       .  S
C1329      H1340   1.109       .  S
C1329      H1341   1.110       .  S
C1331      H1342   1.111       .  S
C1331      H1343   1.109       .  S
C1331      H1344   1.111       .  S
C1345      C1346   1.401       .  A
C1345      C1350   1.404   1_554  A
C1345      H1355   1.084       .  S
C1346      C1351   1.490       .  S
C1346      C1347   1.413       .  A
C1347      C1352   1.505       .  S
C1347      C1348   1.411   1_554  A
C1348      C1349   1.407       .  A
C1348      H1353   1.084       .  S
C1349      C1350   1.417       .  A
C1350      C1354   1.508       .  S
C1351      C1356   1.411       .  A
C1351      C1360   1.403       .  A
C1352      H1368   1.110       .  S
C1352      H1369   1.109       .  S
C1352      H1370   1.111       .  S
C1354      H1365   1.111   1_556  S
C1354      H1366   1.110       .  S
C1354      H1367   1.109       .  S
C1356      C1361   1.508       .  S
C1356      C1357   1.405       .  A
C1357      C1358   1.409       .  A
C1357      H1362   1.084       .  S
C1358      C1359   1.419       .  A
C1359      C1363   1.505       .  S
C1359      C1360   1.411       .  A
C1360      H1364   1.084       .  S
C1361      H1371   1.111       .  S
C1361      H1372   1.110       .  S
C1361      H1373   1.109       .  S
C1363      H1374   1.111       .  S
C1363      H1375   1.110       .  S
C1363      H1376   1.110       .  S
C1377      C1378   1.403       .  A
C1377      C1382   1.410   1_554  A
C1377      H1387   1.084       .  S
C1378      C1383   1.486       .  S
C1378      C1379   1.409       .  A
C1379      C1384   1.508       .  S
C1379      C1380   1.401   1_554  A
C1380      C1381   1.407       .  A
C1380      H1385   1.084       .  S
C1381      C1382   1.420       .  A
C1382      C1386   1.507       .  S
C1383      C1388   1.412       .  A
C1383      C1392   1.400       .  A
C1384      H1400   1.110       .  S
C1384      H1401   1.110       .  S
C1384      H1402   1.111       .  S
C1386      H1397   1.110       .  S
C1386      H1398   1.111       .  S
C1386      H1399   1.104       .  S
C1388      C1393   1.505       .  S
C1388      C1389   1.409       .  A
C1389      C1390   1.405       .  A
C1389      H1394   1.084       .  S
C1390      C1391   1.419       .  A
C1391      C1395   1.509       .  S
C1391      C1392   1.402       .  A
C1392      H1396   1.085       .  S
C1393      H1403   1.111       .  S
C1393      H1404   1.110       .  S
C1393      H1405   1.110       .  S
C1395      H1406   1.111       .  S
C1395      H1407   1.106       .  S
C1395      H1408   1.110       .  S
C1409      C1410   1.401       .  A
C1409      C1414   1.401       .  A
C1409      H1419   1.084       .  S
C1410      C1415   1.482       .  S
C1410      C1411   1.413       .  A
C1411      C1416   1.505       .  S
C1411      C1412   1.403       .  A
C1412      C1413   1.400       .  A
C1412      H1417   1.084       .  S
C1413      C1414   1.414       .  A
C1414      C1418   1.508       .  S
C1415      C1420   1.411       .  A
C1415      C1424   1.401       .  A
C1416      H1432   1.109       .  S
C1416      H1433   1.108       .  S
C1416      H1434   1.111       .  S
C1418      H1429   1.110       .  S
C1418      H1430   1.111       .  S
C1418      H1431   1.108       .  S
C1420      C1425   1.509       .  S
C1420      C1421   1.399       .  A
C1421      C1422   1.405       .  A
C1421      H1426   1.083       .  S
C1422      C1423   1.420       .  A
C1423      C1427   1.507       .  S
C1423      C1424   1.406       .  A
C1424      H1428   1.084       .  S
C1425      H1435   1.111       .  S
C1425      H1436   1.109       .  S
C1425      H1437   1.108       .  S
C1427      H1438   1.111       .  S
C1427      H1439   1.110       .  S
C1427      H1440   1.110       .  S
C1441      C1442   1.399       .  A
C1441      C1446   1.399       .  A
C1441      H1451   1.085       .  S
C1442      C1447   1.478       .  S
C1442      C1443   1.408       .  A
C1443      C1448   1.505       .  S
C1443      C1444   1.407       .  A
C1444      C1445   1.406       .  A
C1444      H1449   1.084       .  S
C1445      C1446   1.417       .  A
C1446      C1450   1.509       .  S
C1447      C1452   1.408       .  A
C1447      C1456   1.397       .  A
C1448      H1464   1.110       .  S
C1448      H1465   1.109       .  S
C1448      H1466   1.111       .  S
C1450      H1461   1.106       .  S
C1450      H1462   1.111       .  S
C1450      H1463   1.107       .  S
C1452      C1457   1.507       .  S
C1452      C1453   1.403       .  A
C1453      C1454   1.409       .  A
C1453      H1458   1.084       .  S
C1454      C1455   1.422       .  A
C1455      C1459   1.505       .  S
C1455      C1456   1.403       .  A
C1456      H1460   1.085       .  S
C1457      H1467   1.111       .  S
C1457      H1468   1.110       .  S
C1457      H1469   1.109       .  S
C1459      H1470   1.105       .  S
C1459      H1471   1.106       .  S
C1459      H1472   1.111       .  S
C1473      C1474   1.402       .  A
C1473      C1478   1.408       .  A
C1473      H1483   1.084       .  S
C1474      C1479   1.481       .  S
C1474      C1475   1.409       .  A
C1475      C1480   1.508       .  S
C1475      C1476   1.400       .  A
C1476      C1477   1.405       .  A
C1476      H1481   1.084       .  S
C1477      C1478   1.416       .  A
C1478      C1482   1.506       .  S
C1479      C1484   1.408       .  A
C1479      C1488   1.405       .  A
C1480      H1496   1.110       .  S
C1480      H1497   1.110       .  S
C1480      H1498   1.111       .  S
C1482      H1493   1.110       .  S
C1482      H1494   1.111       .  S
C1482      H1495   1.106       .  S
C1484      C1489   1.508       .  S
C1484      C1485   1.398       .  A
C1485      C1486   1.406       .  A
C1485      H1490   1.082       .  S
C1486      C1487   1.415       .  A
C1487      C1491   1.505       .  S
C1487      C1488   1.408       .  A
C1488      H1492   1.084       .  S
C1489      H1499   1.111       .  S
C1489      H1500   1.110       .  S
C1489      H1501   1.111       .  S
C1491      H1502   1.110       .  S
C1491      H1503   1.105       .  S
C1491      H1504   1.110       .  S
C1505      C1506   1.401       .  A
C1505      C1510   1.398       .  A
C1505      H1515   1.085       .  S
C1506      C1511   1.482   1_455  S
C1506      C1507   1.412       .  A
C1507      C1512   1.505       .  S
C1507      C1508   1.407       .  A
C1508      C1509   1.403       .  A
C1508      H1513   1.084       .  S
C1509      C1510   1.414       .  A
C1510      C1514   1.508       .  S
C1511      C1516   1.409       .  A
C1511      C1520   1.403       .  A
C1512      H1528   1.110       .  S
C1512      H1529   1.110       .  S
C1512      H1530   1.111       .  S
C1514      H1525   1.111       .  S
C1514      H1526   1.110       .  S
C1514      H1527   1.106       .  S
C1516      C1521   1.511   1_655  S
C1516      C1517   1.395       .  A
C1517      C1518   1.408       .  A
C1517      H1522   1.079       .  S
C1518      C1519   1.420       .  A
C1519      C1523   1.505       .  S
C1519      C1520   1.409       .  A
C1520      H1524   1.084       .  S
C1521      H1531   1.111   1_455  S
C1521      H1532   1.108       .  S
C1521      H1533   1.110       .  S
C1523      H1534   1.110       .  S
C1523      H1535   1.107       .  S
C1523      H1536   1.111       .  S
C1537      C1538   1.398       .  A
C1537      C1542   1.397       .  A
C1537      H1547   1.082       .  S
C1538      C1543   1.476       .  S
C1538      C1539   1.412       .  A
C1539      C1544   1.507       .  S
C1539      C1540   1.404       .  A
C1540      C1541   1.402       .  A
C1540      H1545   1.083       .  S
C1541      C1542   1.415       .  A
C1542      C1546   1.508       .  S
C1543      C1548   1.409       .  A
C1543      C1552   1.399       .  A
C1544      H1560   1.110       .  S
C1544      H1561   1.108       .  S
C1544      H1562   1.111       .  S
C1546      H1557   1.110       .  S
C1546      H1558   1.111       .  S
C1546      H1559   1.109       .  S
C1548      C1553   1.510       .  S
C1548      C1549   1.397       .  A
C1549      C1550   1.408       .  A
C1549      H1554   1.085       .  S
C1550      C1551   1.417       .  A
C1551      C1555   1.505       .  S
C1551      C1552   1.405       .  A
C1552      H1556   1.084       .  S
C1553      H1563   1.111       .  S
C1553      H1564   1.110       .  S
C1553      H1565   1.108       .  S
C1555      H1566   1.110       .  S
C1555      H1567   1.105       .  S
C1555      H1568   1.110       .  S
C1569      C1570   1.392       .  A
C1569      C1574   1.400       .  A
C1569      H1579   1.086       .  S
C1570      C1575   1.486       .  S
C1570      C1571   1.408       .  A
C1571      C1576   1.505       .  S
C1571      C1572   1.413       .  A
C1572      C1573   1.416       .  A
C1572      H1577   1.079       .  S
C1573      C1574   1.436       .  A
C1574      C1578   1.513       .  S
C1575      C1580   1.407       .  A
C1575      C1584   1.394       .  A
C1576      H1592   1.110       .  S
C1576      H1593   1.110       .  S
C1576      H1594   1.111       .  S
C1578      H1589   1.106       .  S
C1578      H1590   1.111       .  S
C1578      H1591   1.108       .  S
C1580      C1585   1.506       .  S
C1580      C1581   1.411       .  A
C1581      C1582   1.417       .  A
C1581      H1586   1.079       .  S
C1582      C1583   1.434       .  A
C1583      C1587   1.513       .  S
C1583      C1584   1.402       .  A
C1584      H1588   1.085       .  S
C1585      H1595   1.111       .  S
C1585      H1596   1.110       .  S
C1585      H1597   1.109       .  S
C1587      H1598   1.111       .  S
C1587      H1599   1.108       .  S
C1587      H1600   1.106       .  S
C1601      C1602   1.402       .  A
C1601      C1606   1.409       .  A
C1601      H1611   1.084       .  S
C1602      C1607   1.495       .  S
C1602      C1603   1.411       .  A
C1603      C1608   1.510       .  S
C1603      C1604   1.402       .  A
C1604      C1605   1.414       .  A
C1604      H1609   1.076       .  S
C1605      C1606   1.428       .  A
C1606      C1610   1.510       .  S
C1607      C1612   1.410       .  A
C1607      C1616   1.404       .  A
C1608      H1624   1.109       .  S
C1608      H1625   1.110       .  S
C1608      H1626   1.111       .  S
C1610      H1621   1.111       .  S
C1610      H1622   1.110       .  S
C1610      H1623   1.102       .  S
C1612      C1617   1.511       .  S
C1612      C1613   1.400       .  A
C1613      C1614   1.414       .  A
C1613      H1618   1.074       .  S
C1614      C1615   1.428       .  A
C1615      C1619   1.511       .  S
C1615      C1616   1.412       .  A
C1616      H1620   1.083       .  S
C1617      H1627   1.111       .  S
C1617      H1628   1.108       .  S
C1617      H1629   1.111       .  S
C1619      H1630   1.108       .  S
C1619      H1631   1.106       .  S
C1619      H1632   1.111       .  S
C1633      C1634   1.404       .  A
C1633      C1638   1.407       .  A
C1633      H1643   1.084       .  S
C1634      C1639   1.486   1_455  S
C1634      C1635   1.412       .  A
C1635      C1640   1.507       .  S
C1635      C1636   1.403       .  A
C1636      C1637   1.403       .  A
C1636      H1641   1.083       .  S
C1637      C1638   1.410       .  A
C1638      C1642   1.502       .  S
C1639      C1644   1.411       .  A
C1639      C1648   1.403       .  A
C1640      H1656   1.109       .  S
C1640      H1657   1.111       .  S
C1640      H1658   1.110       .  S
C1642      H1653   1.110       .  S
C1642      H1654   1.106       .  S
C1642      H1655   1.109       .  S
C1644      C1649   1.507       .  S
C1644      C1645   1.401       .  A
C1645      C1646   1.406       .  A
C1645      H1650   1.084       .  S
C1646      C1647   1.416       .  A
C1647      C1651   1.506       .  S
C1647      C1648   1.408       .  A
C1648      H1652   1.084   1_655  S
C1649      H1659   1.111       .  S
C1649      H1660   1.106       .  S
C1649      H1661   1.110       .  S
C1651      H1662   1.106       .  S
C1651      H1663   1.110       .  S
C1651      H1664   1.111       .  S
C1665      C1666   1.401       .  A
C1665      C1670   1.411       .  A
C1665      H1675   1.084       .  S
C1666      C1671   1.493       .  S
C1666      C1667   1.410       .  A
C1667      C1672   1.508       .  S
C1667      C1668   1.406       .  A
C1668      C1669   1.413       .  A
C1668      H1673   1.079       .  S
C1669      C1670   1.428       .  A
C1670      C1674   1.507       .  S
C1671      C1676   1.411       .  A
C1671      C1680   1.394       .  A
C1672      H1688   1.109       .  S
C1672      H1689   1.110       .  S
C1672      H1690   1.110       .  S
C1674      H1685   1.111       .  S
C1674      H1686   1.110       .  S
C1674      H1687   1.106       .  S
C1676      C1681   1.505       .  S
C1676      C1677   1.416       .  A
C1677      C1678   1.416       .  A
C1677      H1682   1.078       .  S
C1678      C1679   1.434       .  A
C1679      C1683   1.516       .  S
C1679      C1680   1.399       .  A
C1680      H1684   1.086       .  S
C1681      H1691   1.111       .  S
C1681      H1692   1.110       .  S
C1681      H1693   1.110       .  S
C1683      H1694   1.111       .  S
C1683      H1695   1.100       .  S
C1683      H1696   1.111       .  S
C1697      C1698   1.400       .  A
C1697      C1702   1.399       .  A
C1697      H1707   1.085       .  S
C1698      C1703   1.481       .  S
C1698      C1699   1.412       .  A
C1699      C1704   1.505       .  S
C1699      C1700   1.407       .  A
C1700      C1701   1.403       .  A
C1700      H1705   1.084       .  S
C1701      C1702   1.416       .  A
C1702      C1706   1.508       .  S
C1703      C1708   1.411       .  A
C1703      C1712   1.401       .  A
C1704      H1720   1.109       .  S
C1704      H1721   1.110       .  S
C1704      H1722   1.111       .  S
C1706      H1717   1.111       .  S
C1706      H1718   1.108       .  S
C1706      H1719   1.108       .  S
C1708      C1713   1.507       .  S
C1708      C1709   1.403       .  A
C1709      C1710   1.406       .  A
C1709      H1714   1.083       .  S
C1710      C1711   1.418       .  A
C1711      C1715   1.507       .  S
C1711      C1712   1.402       .  A
C1712      H1716   1.085       .  S
C1713      H1723   1.111       .  S
C1713      H1724   1.109       .  S
C1713      H1725   1.110       .  S
C1715      H1726   1.110       .  S
C1715      H1727   1.107       .  S
C1715      H1728   1.111       .  S
C1729      C1730   1.402       .  A
C1729      C1734   1.409       .  A
C1729      H1739   1.085       .  S
C1730      C1735   1.493       .  S
C1730      C1731   1.408       .  A
C1731      C1736   1.509       .  S
C1731      C1732   1.403       .  A
C1732      C1733   1.416       .  A
C1732      H1737   1.076       .  S
C1733      C1734   1.428       .  A
C1734      C1738   1.509       .  S
C1735      C1740   1.406       .  A
C1735      C1744   1.404       .  A
C1736      H1752   1.109       .  S
C1736      H1753   1.111       .  S
C1736      H1754   1.111   1_655  S
C1738      H1749   1.111       .  S
C1738      H1750   1.110       .  S
C1738      H1751   1.103       .  S
C1740      C1745   1.513       .  S
C1740      C1741   1.399       .  A
C1741      C1742   1.419       .  A
C1741      H1746   1.068       .  S
C1742      C1743   1.430       .  A
C1743      C1747   1.509       .  S
C1743      C1744   1.416       .  A
C1744      H1748   1.083       .  S
C1745      H1755   1.110       .  S
C1745      H1756   1.109       .  S
C1745      H1757   1.111       .  S
C1747      H1758   1.107       .  S
C1747      H1759   1.108       .  S
C1747      H1760   1.111       .  S
C1761      C1762   1.402       .  A
C1761      C1766   1.399       .  A
C1761      H1771   1.085       .  S
C1762      C1767   1.483       .  S
C1762      C1763   1.411       .  A
C1763      C1768   1.505       .  S
C1763      C1764   1.407       .  A
C1764      C1765   1.403       .  A
C1764      H1769   1.084       .  S
C1765      C1766   1.414       .  A
C1766      C1770   1.508       .  S
C1767      C1772   1.409       .  A
C1767      C1776   1.405       .  A
C1768      H1784   1.110       .  S
C1768      H1785   1.110       .  S
C1768      H1786   1.111       .  S
C1770      H1781   1.106       .  S
C1770      H1782   1.110       .  S
C1770      H1783   1.110       .  S
C1772      C1777   1.511       .  S
C1772      C1773   1.393       .  A
C1773      C1774   1.407       .  A
C1773      H1778   1.077       .  S
C1774      C1775   1.418       .  A
C1775      C1779   1.505       .  S
C1775      C1776   1.411       .  A
C1776      H1780   1.084       .  S
C1777      H1787   1.111       .  S
C1777      H1788   1.108       .  S
C1777      H1789   1.110       .  S
C1779      H1790   1.110       .  S
C1779      H1791   1.108       .  S
C1779      H1792   1.111       .  S
C1793      C1794   1.399       .  A
C1793      C1798   1.398       .  A
C1793      H1803   1.085       .  S
C1794      C1799   1.476       .  S
C1794      C1795   1.410       .  A
C1795      C1800   1.505       .  S
C1795      C1796   1.404       .  A
C1796      C1797   1.403       .  A
C1796      H1801   1.082       .  S
C1797      C1798   1.416       .  A
C1798      C1802   1.507       .  S
C1799      C1804   1.408       .  A
C1799      C1808   1.395       .  A
C1800      H1816   1.111       .  S
C1800      H1817   1.110       .  S
C1800      H1818   1.111       .  S
C1802      H1813   1.110       .  S
C1802      H1814   1.111       .  S
C1802      H1815   1.109       .  S
C1804      C1809   1.508       .  S
C1804      C1805   1.399       .  A
C1805      C1806   1.408       .  A
C1805      H1810   1.083       .  S
C1806      C1807   1.423       .  A
C1807      C1811   1.498       .  S
C1807      C1808   1.407       .  A
C1808      H1812   1.084       .  S
C1809      H1819   1.111       .  S
C1809      H1820   1.110       .  S
C1809      H1821   1.110       .  S
C1811      H1822   1.110       .  S
C1811      H1823   1.105       .  S
C1811      H1824   1.106       .  S
C1825      C1826   1.400       .  A
C1825      C1830   1.407       .  A
C1825      H1835   1.084       .  S
C1826      C1831   1.475   1_455  S
C1826      C1827   1.409       .  A
C1827      C1832   1.509       .  S
C1827      C1828   1.396       .  A
C1828      C1829   1.405       .  A
C1828      H1833   1.083       .  S
C1829      C1830   1.419       .  A
C1830      C1834   1.506       .  S
C1831      C1836   1.410       .  A
C1831      C1840   1.399       .  A
C1832      H1848   1.107   1_455  S
C1832      H1849   1.109   1_455  S
C1832      H1850   1.111       .  S
C1834      H1845   1.111       .  S
C1834      H1846   1.110       .  S
C1834      H1847   1.110       .  S
C1836      C1841   1.506       .  S
C1836      C1837   1.405       .  A
C1837      C1838   1.404       .  A
C1837      H1842   1.084       .  S
C1838      C1839   1.413       .  A
C1839      C1843   1.506       .  S
C1839      C1840   1.400       .  A
C1840      H1844   1.085       .  S
C1841      H1851   1.111       .  S
C1841      H1852   1.111       .  S
C1841      H1853   1.109       .  S
C1843      H1854   1.110       .  S
C1843      H1855   1.101       .  S
C1843      H1856   1.111       .  S
C1857      C1858   1.404       .  A
C1857      C1862   1.413       .  A
C1857      H1867   1.084       .  S
C1858      C1863   1.493       .  S
C1858      C1859   1.410       .  A
C1859      C1864   1.508       .  S
C1859      C1860   1.403       .  A
C1860      C1861   1.408       .  A
C1860      H1865   1.085       .  S
C1861      C1862   1.423       .  A
C1862      C1866   1.507       .  S
C1863      C1868   1.412       .  A
C1863      C1872   1.403       .  A
C1864      H1880   1.110       .  S
C1864      H1881   1.110       .  S
C1864      H1882   1.111       .  S
C1866      H1877   1.111       .  S
C1866      H1878   1.111       .  S
C1866      H1879   1.103       .  S
C1868      C1873   1.506       .  S
C1868      C1869   1.406       .  A
C1869      C1870   1.405       .  A
C1869      H1874   1.084       .  S
C1870      C1871   1.420       .  A
C1871      C1875   1.508       .  S
C1871      C1872   1.410       .  A
C1872      H1876   1.084       .  S
C1873      H1883   1.111       .  S
C1873      H1884   1.110       .  S
C1873      H1885   1.110       .  S
C1875      H1886   1.110       .  S
C1875      H1887   1.104       .  S
C1875      H1888   1.111       .  S
C1889      C1890   1.400       .  A
C1889      C1894   1.402       .  A
C1889      H1899   1.084       .  S
C1890      C1895   1.483       .  S
C1890      C1891   1.412       .  A
C1891      C1896   1.505       .  S
C1891      C1892   1.408       .  A
C1892      C1893   1.404       .  A
C1892      H1897   1.084       .  S
C1893      C1894   1.417       .  A
C1894      C1898   1.510       .  S
C1895      C1900   1.411       .  A
C1895      C1904   1.401       .  A
C1896      H1912   1.110       .  S
C1896      H1913   1.110       .  S
C1896      H1914   1.111       .  S
C1898      H1909   1.111       .  S
C1898      H1910   1.109       .  S
C1898      H1911   1.111       .  S
C1900      C1905   1.505       .  S
C1900      C1901   1.407       .  A
C1901      C1902   1.405       .  A
C1901      H1906   1.084       .  S
C1902      C1903   1.417       .  A
C1903      C1907   1.508       .  S
C1903      C1904   1.402       .  A
C1904      H1908   1.085       .  S
C1905      H1915   1.111       .  S
C1905      H1916   1.110       .  S
C1905      H1917   1.110       .  S
C1907      H1918   1.110       .  S
C1907      H1919   1.107       .  S
C1907      H1920   1.111       .  S
C1921      C1922   1.400       .  A
C1921      C1926   1.398       .  A
C1921      H1931   1.085       .  S
C1922      C1927   1.476   1_655  S
C1922      C1923   1.411       .  A
C1923      C1928   1.505       .  S
C1923      C1924   1.403       .  A
C1924      C1925   1.402       .  A
C1924      H1929   1.084       .  S
C1925      C1926   1.412       .  A
C1926      C1930   1.507       .  S
C1927      C1932   1.410       .  A
C1927      C1936   1.401       .  A
C1928      H1944   1.110       .  S
C1928      H1945   1.110       .  S
C1928      H1946   1.111       .  S
C1930      H1941   1.110       .  S
C1930      H1942   1.110       .  S
C1930      H1943   1.108       .  S
C1932      C1937   1.510       .  S
C1932      C1933   1.393       .  A
C1933      C1934   1.404       .  A
C1933      H1938   1.084       .  S
C1934      C1935   1.418       .  A
C1935      C1939   1.506       .  S
C1935      C1936   1.407       .  A
C1936      H1940   1.084       .  S
C1937      H1947   1.111       .  S
C1937      H1948   1.109   1_455  S
C1937      H1949   1.111   1_455  S
C1939      H1950   1.111       .  S
C1939      H1951   1.110       .  S
C1939      H1952   1.110       .  S
C1953      C1954   1.397       .  A
C1953      C1958   1.396       .  A
C1953      H1963   1.079       .  S
C1954      C1959   1.474       .  S
C1954      C1955   1.407       .  A
C1955      C1960   1.504       .  S
C1955      C1956   1.404       .  A
C1956      C1957   1.407       .  A
C1956      H1961   1.084       .  S
C1957      C1958   1.416       .  A
C1958      C1962   1.510       .  S
C1959      C1964   1.411       .  A
C1959      C1968   1.399       .  A
C1960      H1976   1.110       .  S
C1960      H1977   1.110       .  S
C1960      H1978   1.111       .  S
C1962      H1973   1.110       .  S
C1962      H1974   1.110       .  S
C1962      H1975   1.109       .  S
C1964      C1969   1.505       .  S
C1964      C1965   1.403       .  A
C1965      C1966   1.401       .  A
C1965      H1970   1.084       .  S
C1966      C1967   1.412       .  A
C1967      C1971   1.508       .  S
C1967      C1968   1.398       .  A
C1968      H1972   1.085       .  S
C1969      H1979   1.110       .  S
C1969      H1980   1.108       .  S
C1969      H1981   1.111       .  S
C1971      H1982   1.110       .  S
C1971      H1983   1.108       .  S
C1971      H1984   1.110       .  S
C1985      C1986   1.402   1_556  A
C1985      C1990   1.410       .  A
C1985      H1995   1.084   1_556  S
C1986      C1991   1.490       .  S
C1986      C1987   1.411   1_554  A
C1987      C1992   1.508   1_556  S
C1987      C1988   1.404       .  A
C1988      C1989   1.407       .  A
C1988      H1993   1.084       .  S
C1989      C1990   1.422       .  A
C1990      C1994   1.508       .  S
C1991      C1996   1.410       .  A
C1991      C2000   1.403       .  A
C1992      H2008   1.110       .  S
C1992      H2009   1.109       .  S
C1992      H2010   1.111       .  S
C1994      H2005   1.111       .  S
C1994      H2006   1.110       .  S
C1994      H2007   1.103       .  S
C1996      C2001   1.508       .  S
C1996      C1997   1.404       .  A
C1997      C1998   1.407       .  A
C1997      H2002   1.084       .  S
C1998      C1999   1.421       .  A
C1999      C2003   1.507       .  S
C1999      C2000   1.411       .  A
C2000      H2004   1.084       .  S
C2001      H2011   1.111       .  S
C2001      H2012   1.110       .  S
C2001      H2013   1.109       .  S
C2003      H2014   1.111       .  S
C2003      H2015   1.104       .  S
C2003      H2016   1.110       .  S
C2017      C2018   1.400       .  A
C2017      C2022   1.403   1_554  A
C2017      H2027   1.085       .  S
C2018      C2023   1.491       .  S
C2018      C2019   1.414   1_554  A
C2019      C2024   1.505   1_556  S
C2019      C2020   1.413       .  A
C2020      C2021   1.406       .  A
C2020      H2025   1.084       .  S
C2021      C2022   1.418       .  A
C2022      C2026   1.505       .  S
C2023      C2028   1.415       .  A
C2023      C2032   1.401       .  A
C2024      H2040   1.109       .  S
C2024      H2041   1.111       .  S
C2024      H2042   1.110   1_554  S
C2026      H2037   1.111       .  S
C2026      H2038   1.110       .  S
C2026      H2039   1.106       .  S
C2028      C2033   1.505       .  S
C2028      C2029   1.411       .  A
C2029      C2030   1.405       .  A
C2029      H2034   1.084       .  S
C2030      C2031   1.414       .  A
C2031      C2035   1.509       .  S
C2031      C2032   1.401       .  A
C2032      H2036   1.085       .  S
C2033      H2043   1.111   1_655  S
C2033      H2044   1.109       .  S
C2033      H2045   1.110   1_655  S
C2035      H2046   1.110       .  S
C2035      H2047   1.109       .  S
C2035      H2048   1.110       .  S
C2049      C2050   1.399       .  A
C2049      C2054   1.400       .  A
C2049      H2059   1.085       .  S
C2050      C2055   1.475       .  S
C2050      C2051   1.409       .  A
C2051      C2056   1.505       .  S
C2051      C2052   1.404       .  A
C2052      C2053   1.404       .  A
C2052      H2057   1.084       .  S
C2053      C2054   1.414       .  A
C2054      C2058   1.504       .  S
C2055      C2060   1.411       .  A
C2055      C2064   1.398       .  A
C2056      H2072   1.110       .  S
C2056      H2073   1.110       .  S
C2056      H2074   1.111       .  S
C2058      H2069   1.109       .  S
C2058      H2070   1.111       .  S
C2058      H2071   1.109       .  S
C2060      C2065   1.505       .  S
C2060      C2061   1.407       .  A
C2061      C2062   1.403       .  A
C2061      H2066   1.084       .  S
C2062      C2063   1.411       .  A
C2063      C2067   1.505       .  S
C2063      C2064   1.395       .  A
C2064      H2068   1.085       .  S
C2065      H2075   1.111       .  S
C2065      H2076   1.110       .  S
C2065      H2077   1.110       .  S
C2067      H2078   1.110       .  S
C2067      H2079   1.108       .  S
C2067      H2080   1.108       .  S
C2081      C2082   1.401       .  A
C2081      C2086   1.404       .  A
C2081      H2091   1.084       .  S
C2082      C2087   1.479       .  S
C2082      C2083   1.411       .  A
C2083      C2088   1.508       .  S
C2083      C2084   1.401       .  A
C2084      C2085   1.404       .  A
C2084      H2089   1.084       .  S
C2085      C2086   1.416       .  A
C2086      C2090   1.507       .  S
C2087      C2092   1.410       .  A
C2087      C2096   1.400       .  A
C2088      H2104   1.109       .  S
C2088      H2105   1.110       .  S
C2088      H2106   1.111       .  S
C2090      H2101   1.109       .  S
C2090      H2102   1.111       .  S
C2090      H2103   1.110       .  S
C2092      C2097   1.507       .  S
C2092      C2093   1.402       .  A
C2093      C2094   1.405       .  A
C2093      H2098   1.084       .  S
C2094      C2095   1.418       .  A
C2095      C2099   1.508       .  S
C2095      C2096   1.402       .  A
C2096      H2100   1.084       .  S
C2097      H2107   1.111       .  S
C2097      H2108   1.109       .  S
C2097      H2109   1.110       .  S
C2099      H2110   1.111       .  S
C2099      H2111   1.110       .  S
C2099      H2112   1.110       .  S
C2113      C2114   1.400       .  A
C2113      C2118   1.398       .  A
C2113      H2123   1.085       .  S
C2114      C2119   1.476       .  S
C2114      C2115   1.410       .  A
C2115      C2120   1.506       .  S
C2115      C2116   1.404       .  A
C2116      C2117   1.403       .  A
C2116      H2121   1.084       .  S
C2117      C2118   1.414       .  A
C2118      C2122   1.508       .  S
C2119      C2124   1.409       .  A
C2119      C2128   1.399       .  A
C2120      H2136   1.110       .  S
C2120      H2137   1.110       .  S
C2120      H2138   1.111       .  S
C2122      H2133   1.111       .  S
C2122      H2134   1.110       .  S
C2122      H2135   1.108       .  S
C2124      C2129   1.506       .  S
C2124      C2125   1.404       .  A
C2125      C2126   1.407       .  A
C2125      H2130   1.084       .  S
C2126      C2127   1.418       .  A
C2127      C2131   1.508       .  S
C2127      C2128   1.399       .  A
C2128      H2132   1.085       .  S
C2129      H2139   1.111       .  S
C2129      H2140   1.110       .  S
C2129      H2141   1.110       .  S
C2131      H2142   1.111       .  S
C2131      H2143   1.109       .  S
C2131      H2144   1.110       .  S
C2145      C2146   1.397       .  A
C2145      C2150   1.397       .  A
C2145      H2155   1.084       .  S
C2146      C2151   1.477       .  S
C2146      C2147   1.408       .  A
C2147      C2152   1.505       .  S
C2147      C2148   1.406       .  A
C2148      C2149   1.408       .  A
C2148      H2153   1.083       .  S
C2149      C2150   1.421       .  A
C2150      C2154   1.509       .  S
C2151      C2156   1.410       .  A
C2151      C2160   1.402       .  A
C2152      H2168   1.110       .  S
C2152      H2169   1.111       .  S
C2152      H2170   1.111       .  S
C2154      H2165   1.110       .  S
C2154      H2166   1.111       .  S
C2154      H2167   1.108       .  S
C2156      C2161   1.508       .  S
C2156      C2157   1.397       .  A
C2157      C2158   1.402       .  A
C2157      H2162   1.084       .  S
C2158      C2159   1.416       .  A
C2159      C2163   1.507       .  S
C2159      C2160   1.407       .  A
C2160      H2164   1.085       .  S
C2161      H2171   1.111       .  S
C2161      H2172   1.109       .  S
C2161      H2173   1.110       .  S
C2163      H2174   1.111       .  S
C2163      H2175   1.109   1_565  S
C2163      H2176   1.110   1_565  S
C2177      C2178   1.399       .  A
C2177      C2182   1.402       .  A
C2177      H2187   1.084       .  S
C2178      C2183   1.477       .  S
C2178      C2179   1.410       .  A
C2179      C2184   1.507       .  S
C2179      C2180   1.403       .  A
C2180      C2181   1.405       .  A
C2180      H2185   1.084       .  S
C2181      C2182   1.418       .  A
C2182      C2186   1.508       .  S
C2183      C2188   1.409       .  A
C2183      C2192   1.399       .  A
C2184      H2200   1.110       .  S
C2184      H2201   1.111       .  S
C2184      H2202   1.111       .  S
C2186      H2197   1.110       .  S
C2186      H2198   1.111       .  S
C2186      H2199   1.111       .  S
C2188      C2193   1.506       .  S
C2188      C2189   1.404       .  A
C2189      C2190   1.406       .  A
C2189      H2194   1.084       .  S
C2190      C2191   1.418       .  A
C2191      C2195   1.510       .  S
C2191      C2192   1.399       .  A
C2192      H2196   1.085       .  S
C2193      H2203   1.111       .  S
C2193      H2204   1.110       .  S
C2193      H2205   1.110       .  S
C2195      H2206   1.111       .  S
C2195      H2207   1.105       .  S
C2195      H2208   1.110       .  S
C2209      C2210   1.400       .  A
C2209      C2214   1.406       .  A
C2209      H2219   1.084       .  S
C2210      C2215   1.490       .  S
C2210      C2211   1.412       .  A
C2211      C2216   1.505       .  S
C2211      C2212   1.409       .  A
C2212      C2213   1.407       .  A
C2212      H2217   1.084       .  S
C2213      C2214   1.421       .  A
C2214      C2218   1.509       .  S
C2215      C2220   1.413       .  A
C2215      C2224   1.402       .  A
C2216      H2232   1.110       .  S
C2216      H2233   1.110       .  S
C2216      H2234   1.111       .  S
C2218      H2229   1.111       .  S
C2218      H2230   1.109       .  S
C2218      H2231   1.111       .  S
C2220      C2225   1.505       .  S
C2220      C2221   1.409       .  A
C2221      C2222   1.404       .  A
C2221      H2226   1.084       .  S
C2222      C2223   1.417       .  A
C2223      C2227   1.509       .  S
C2223      C2224   1.405       .  A
C2224      H2228   1.085       .  S
C2225      H2235   1.111       .  S
C2225      H2236   1.110       .  S
C2225      H2237   1.110       .  S
C2227      H2238   1.110       .  S
C2227      H2239   1.108       .  S
C2227      H2240   1.111       .  S
C2241      C2242   1.399       .  A
C2241      C2246   1.405       .  A
C2241      H2251   1.084       .  S
C2242      C2247   1.473       .  S
C2242      C2243   1.408       .  A
C2243      C2248   1.508       .  S
C2243      C2244   1.398       .  A
C2244      C2245   1.405       .  A
C2244      H2249   1.084       .  S
C2245      C2246   1.419       .  A
C2246      C2250   1.507       .  S
C2247      C2252   1.408       .  A
C2247      C2256   1.399       .  A
C2248      H2264   1.110       .  S
C2248      H2265   1.110       .  S
C2248      H2266   1.111       .  S
C2250      H2261   1.110       .  S
C2250      H2262   1.111       .  S
C2250      H2263   1.111       .  S
C2252      C2257   1.506       .  S
C2252      C2253   1.401       .  A
C2253      C2254   1.403       .  A
C2253      H2258   1.084       .  S
C2254      C2255   1.416       .  A
C2255      C2259   1.509       .  S
C2255      C2256   1.400       .  A
C2256      H2260   1.084       .  S
C2257      H2267   1.111       .  S
C2257      H2268   1.110       .  S
C2257      H2269   1.110       .  S
C2259      H2270   1.111       .  S
C2259      H2271   1.111       .  S
C2259      H2272   1.109       .  S
C2273      C2274   1.402       .  A
C2273      C2278   1.405       .  A
C2273      H2283   1.085       .  S
C2274      C2279   1.490       .  S
C2274      C2275   1.413       .  A
C2275      C2280   1.505       .  S
C2275      C2276   1.409       .  A
C2276      C2277   1.404       .  A
C2276      H2281   1.084       .  S
C2277      C2278   1.418       .  A
C2278      C2282   1.508       .  S
C2279      C2284   1.411       .  A
C2279      C2288   1.399       .  A
C2280      H2296   1.110       .  S
C2280      H2297   1.110       .  S
C2280      H2298   1.111       .  S
C2282      H2293   1.110   1_545  S
C2282      H2294   1.110       .  S
C2282      H2295   1.107       .  S
C2284      C2289   1.505       .  S
C2284      C2285   1.410       .  A
C2285      C2286   1.408       .  A
C2285      H2290   1.084       .  S
C2286      C2287   1.423       .  A
C2287      C2291   1.509       .  S
C2287      C2288   1.406       .  A
C2288      H2292   1.084       .  S
C2289      H2299   1.111       .  S
C2289      H2300   1.110       .  S
C2289      H2301   1.110       .  S
C2291      H2302   1.111       .  S
C2291      H2303   1.109       .  S
C2291      H2304   1.111       .  S
C2305      C2306   1.403       .  A
C2305      C2310   1.400       .  A
C2305      H2315   1.083       .  S
C2306      C2311   1.479       .  S
C2306      C2307   1.411       .  A
C2307      C2312   1.507       .  S
C2307      C2308   1.400       .  A
C2308      C2309   1.401       .  A
C2308      H2313   1.084       .  S
C2309      C2310   1.412       .  A
C2310      C2314   1.508       .  S
C2311      C2316   1.408       .  A
C2311      C2320   1.400       .  A
C2312      H2328   1.109       .  S
C2312      H2329   1.110       .  S
C2312      H2330   1.111       .  S
C2314      H2325   1.110       .  S
C2314      H2326   1.110       .  S
C2314      H2327   1.107       .  S
C2316      C2321   1.506       .  S
C2316      C2317   1.404       .  A
C2317      C2318   1.409       .  A
C2317      H2322   1.084   1_565  S
C2318      C2319   1.419       .  A
C2319      C2323   1.509       .  S
C2319      C2320   1.398       .  A
C2320      H2324   1.084       .  S
C2321      H2331   1.111       .  S
C2321      H2332   1.109       .  S
C2321      H2333   1.110       .  S
C2323      H2334   1.111       .  S
C2323      H2335   1.110       .  S
C2323      H2336   1.109       .  S
C2337      C2338   1.402       .  A
C2337      C2342   1.396       .  A
C2337      H2347   1.085       .  S
C2338      C2343   1.480       .  S
C2338      C2339   1.412       .  A
C2339      C2344   1.506       .  S
C2339      C2340   1.405       .  A
C2340      C2341   1.402       .  A
C2340      H2345   1.084       .  S
C2341      C2342   1.413       .  A
C2342      C2346   1.509       .  S
C2343      C2348   1.411       .  A
C2343      C2352   1.403       .  A
C2344      H2360   1.109       .  S
C2344      H2361   1.110       .  S
C2344      H2362   1.111       .  S
C2346      H2357   1.111       .  S
C2346      H2358   1.110       .  S
C2346      H2359   1.107       .  S
C2348      C2353   1.512       .  S
C2348      C2349   1.393       .  A
C2349      C2350   1.407       .  A
C2349      H2354   1.081       .  S
C2350      C2351   1.417       .  A
C2351      C2355   1.505       .  S
C2351      C2352   1.407       .  A
C2352      H2356   1.084       .  S
C2353      H2363   1.111       .  S
C2353      H2364   1.108       .  S
C2353      H2365   1.110       .  S
C2355      H2366   1.110       .  S
C2355      H2367   1.108   1_565  S
C2355      H2368   1.111       .  S
C2369      C2370   1.397       .  A
C2369      C2374   1.398       .  A
C2369      H2379   1.085       .  S
C2370      C2375   1.475       .  S
C2370      C2371   1.410       .  A
C2371      C2376   1.504       .  S
C2371      C2372   1.403       .  A
C2372      C2373   1.406       .  A
C2372      H2377   1.085       .  S
C2373      C2374   1.420       .  A
C2374      C2378   1.506       .  S
C2375      C2380   1.405       .  A
C2375      C2384   1.398       .  A
C2376      H2392   1.111       .  S
C2376      H2393   1.108       .  S
C2376      H2394   1.110       .  S
C2378      H2389   1.111       .  S
C2378      H2390   1.111       .  S
C2378      H2391   1.097       .  S
C2380      C2385   1.510       .  S
C2380      C2381   1.396       .  A
C2381      C2382   1.413       .  A
C2381      H2386   1.083       .  S
C2382      C2383   1.427       .  A
C2383      C2387   1.504       .  S
C2383      C2384   1.408       .  A
C2384      H2388   1.085       .  S
C2385      H2395   1.109       .  S
C2385      H2396   1.110       .  S
C2385      H2397   1.108       .  S
C2387      H2398   1.111       .  S
C2387      H2399   1.102       .  S
C2387      H2400   1.109       .  S
C2401      C2402   1.400       .  A
C2401      C2406   1.400       .  A
C2401      H2411   1.085       .  S
C2402      C2407   1.476       .  S
C2402      C2403   1.412       .  A
C2403      C2408   1.507       .  S
C2403      C2404   1.403       .  A
C2404      C2405   1.403       .  A
C2404      H2409   1.084       .  S
C2405      C2406   1.415       .  A
C2406      C2410   1.507       .  S
C2407      C2412   1.408       .  A
C2407      C2416   1.392       .  A
C2408      H2424   1.110       .  S
C2408      H2425   1.110       .  S
C2408      H2426   1.111       .  S
C2410      H2421   1.110       .  S
C2410      H2422   1.110       .  S
C2410      H2423   1.108       .  S
C2412      C2417   1.504       .  S
C2412      C2413   1.410       .  A
C2413      C2414   1.409       .  A
C2413      H2418   1.084       .  S
C2414      C2415   1.425       .  A
C2415      C2419   1.506       .  S
C2415      C2416   1.394       .  A
C2416      H2420   1.085       .  S
C2417      H2427   1.111       .  S
C2417      H2428   1.110       .  S
C2417      H2429   1.110       .  S
C2419      H2430   1.107       .  S
C2419      H2431   1.100       .  S
C2419      H2432   1.111       .  S
C2433      C2434   1.401       .  A
C2433      C2438   1.410       .  A
C2433      H2443   1.084       .  S
C2434      C2439   1.492       .  S
C2434      C2435   1.411   1_565  A
C2435      C2440   1.505       .  S
C2435      C2436   1.405       .  A
C2436      C2437   1.407       .  A
C2436      H2441   1.084       .  S
C2437      C2438   1.422   1_545  A
C2438      C2442   1.504       .  S
C2439      C2444   1.411       .  A
C2439      C2448   1.405       .  A
C2440      H2456   1.107       .  S
C2440      H2457   1.110       .  S
C2440      H2458   1.111       .  S
C2442      H2453   1.111       .  S
C2442      H2454   1.105       .  S
C2442      H2455   1.108       .  S
C2444      C2449   1.507       .  S
C2444      C2445   1.403       .  A
C2445      C2446   1.407       .  A
C2445      H2450   1.084       .  S
C2446      C2447   1.417       .  A
C2447      C2451   1.506       .  S
C2447      C2448   1.411       .  A
C2448      H2452   1.083   1_565  S
C2449      H2459   1.111       .  S
C2449      H2460   1.110       .  S
C2449      H2461   1.110       .  S
C2451      H2462   1.107       .  S
C2451      H2463   1.110   1_565  S
C2451      H2464   1.111   1_565  S
C2465      C2466   1.401       .  A
C2465      C2470   1.408       .  A
C2465      H2475   1.084       .  S
C2466      C2471   1.489       .  S
C2466      C2467   1.411       .  A
C2467      C2472   1.507       .  S
C2467      C2468   1.405       .  A
C2468      C2469   1.410       .  A
C2468      H2473   1.082       .  S
C2469      C2470   1.426       .  A
C2470      C2474   1.507       .  S
C2471      C2476   1.408       .  A
C2471      C2480   1.394       .  A
C2472      H2488   1.109       .  S
C2472      H2489   1.111       .  S
C2472      H2490   1.111       .  S
C2474      H2485   1.110       .  S
C2474      H2486   1.111       .  S
C2474      H2487   1.108       .  S
C2476      C2481   1.505       .  S
C2476      C2477   1.414       .  A
C2477      C2478   1.417       .  A
C2477      H2482   1.076       .  S
C2478      C2479   1.436       .  A
C2479      C2483   1.518       .  S
C2479      C2480   1.401       .  A
C2480      H2484   1.085       .  S
C2481      H2491   1.111       .  S
C2481      H2492   1.110       .  S
C2481      H2493   1.110       .  S
C2483      H2494   1.104   1_545  S
C2483      H2495   1.103       .  S
C2483      H2496   1.111   1_545  S
C2497      C2498   1.402       .  A
C2497      C2502   1.408       .  A
C2497      H2507   1.085       .  S
C2498      C2503   1.490       .  S
C2498      C2499   1.409       .  A
C2499      C2504   1.507       .  S
C2499      C2500   1.404       .  A
C2500      C2501   1.413       .  A
C2500      H2505   1.079       .  S
C2501      C2502   1.426       .  A
C2502      C2506   1.508       .  S
C2503      C2508   1.407       .  A
C2503      C2512   1.401       .  A
C2504      H2520   1.110       .  S
C2504      H2521   1.110       .  S
C2504      H2522   1.111       .  S
C2506      H2517   1.111       .  S
C2506      H2518   1.110       .  S
C2506      H2519   1.105       .  S
C2508      C2513   1.511       .  S
C2508      C2509   1.400       .  A
C2509      C2510   1.417       .  A
C2509      H2514   1.079       .  S
C2510      C2511   1.430       .  A
C2511      C2515   1.508       .  S
C2511      C2512   1.414       .  A
C2512      H2516   1.084       .  S
C2513      H2523   1.111       .  S
C2513      H2524   1.109       .  S
C2513      H2525   1.111       .  S
C2515      H2526   1.111       .  S
C2515      H2527   1.106       .  S
C2515      H2528   1.110       .  S
C2529      C2530   1.400       .  A
C2529      C2534   1.402       .  A
C2529      H2539   1.084       .  S
C2530      C2535   1.482       .  S
C2530      C2531   1.410       .  A
C2531      C2536   1.506       .  S
C2531      C2532   1.405       .  A
C2532      C2533   1.403       .  A
C2532      H2537   1.078       .  S
C2533      C2534   1.418       .  A
C2534      C2538   1.507       .  S
C2535      C2540   1.411       .  A
C2535      C2544   1.399       .  A
C2536      H2552   1.110       .  S
C2536      H2553   1.109       .  S
C2536      H2554   1.111       .  S
C2538      H2549   1.110       .  S
C2538      H2550   1.111       .  S
C2538      H2551   1.109       .  S
C2540      C2545   1.508       .  S
C2540      C2541   1.401       .  A
C2541      C2542   1.406       .  A
C2541      H2546   1.084       .  S
C2542      C2543   1.419       .  A
C2543      C2547   1.501       .  S
C2543      C2544   1.408       .  A
C2544      H2548   1.084       .  S
C2545      H2555   1.111       .  S
C2545      H2556   1.110       .  S
C2545      H2557   1.109       .  S
C2547      H2558   1.108   1_565  S
C2547      H2559   1.106       .  S
C2547      H2560   1.110       .  S
C2561      C2562   1.401       .  A
C2561      C2566   1.407       .  A
C2561      H2571   1.084       .  S
C2562      C2567   1.489       .  S
C2562      C2563   1.408       .  A
C2563      C2568   1.508       .  S
C2563      C2564   1.404       .  A
C2564      C2565   1.414       .  A
C2564      H2569   1.075       .  S
C2565      C2566   1.429       .  A
C2566      C2570   1.509       .  S
C2567      C2572   1.406       .  A
C2567      C2576   1.404       .  A
C2568      H2584   1.110       .  S
C2568      H2585   1.110       .  S
C2568      H2586   1.111       .  S
C2570      H2581   1.111       .  S
C2570      H2582   1.110       .  S
C2570      H2583   1.104       .  S
C2572      C2577   1.512       .  S
C2572      C2573   1.392       .  A
C2573      C2574   1.414       .  A
C2573      H2578   1.079       .  S
C2574      C2575   1.428       .  A
C2575      C2579   1.501       .  S
C2575      C2576   1.417       .  A
C2576      H2580   1.084       .  S
C2577      H2587   1.111       .  S
C2577      H2588   1.109       .  S
C2577      H2589   1.110       .  S
C2579      H2590   1.109       .  S
C2579      H2591   1.110       .  S
C2579      H2592   1.111       .  S
C2593      C2594   1.399       .  A
C2593      C2598   1.400       .  A
C2593      H2603   1.085       .  S
C2594      C2599   1.480       .  S
C2594      C2595   1.409       .  A
C2595      C2600   1.504       .  S
C2595      C2596   1.405       .  A
C2596      C2597   1.404       .  A
C2596      H2601   1.084       .  S
C2597      C2598   1.421       .  A
C2598      C2602   1.511       .  S
C2599      C2604   1.410       .  A
C2599      C2608   1.401       .  A
C2600      H2616   1.110       .  S
C2600      H2617   1.110       .  S
C2600      H2618   1.111       .  S
C2602      H2613   1.111       .  S
C2602      H2614   1.107       .  S
C2602      H2615   1.110       .  S
C2604      C2609   1.507       .  S
C2604      C2605   1.403       .  A
C2605      C2606   1.402       .  A
C2605      H2610   1.078       .  S
C2606      C2607   1.416       .  A
C2607      C2611   1.507       .  S
C2607      C2608   1.403       .  A
C2608      H2612   1.085       .  S
C2609      H2619   1.111       .  S
C2609      H2620   1.110       .  S
C2609      H2621   1.110       .  S
C2611      H2622   1.110       .  S
C2611      H2623   1.108       .  S
C2611      H2624   1.110       .  S
C2625      C2626   1.394       .  A
C2625      C2630   1.400       .  A
C2625      H2635   1.086       .  S
C2626      C2631   1.487       .  S
C2626      C2627   1.407   1_565  A
C2627      C2632   1.506       .  S
C2627      C2628   1.413   1_545  A
C2628      C2629   1.418       .  A
C2628      H2633   1.076   1_565  S
C2629      C2630   1.434       .  A
C2630      C2634   1.514       .  S
C2631      C2636   1.409   1_565  A
C2631      C2640   1.398       .  A
C2632      H2648   1.110       .  S
C2632      H2649   1.109       .  S
C2632      H2650   1.111       .  S
C2634      H2645   1.111       .  S
C2634      H2646   1.111       .  S
C2634      H2647   1.100       .  S
C2636      C2641   1.507       .  S
C2636      C2637   1.406       .  A
C2637      C2638   1.412   1_545  A
C2637      H2642   1.077       .  S
C2638      C2639   1.430       .  A
C2639      C2643   1.510       .  S
C2639      C2640   1.406       .  A
C2640      H2644   1.084       .  S
C2641      H2651   1.111       .  S
C2641      H2652   1.110       .  S
C2641      H2653   1.109       .  S
C2643      H2654   1.111       .  S
C2643      H2655   1.104       .  S
C2643      H2656   1.110       .  S
C2657      C2658   1.403       .  A
C2657      C2662   1.406       .  A
C2657      H2667   1.078       .  S
C2658      C2663   1.481       .  S
C2658      C2659   1.409       .  A
C2659      C2664   1.508       .  S
C2659      C2660   1.398       .  A
C2660      C2661   1.406       .  A
C2660      H2665   1.084       .  S
C2661      C2662   1.411       .  A
C2662      C2666   1.505       .  S
C2663      C2668   1.408       .  A
C2663      C2672   1.399       .  A
C2664      H2680   1.109       .  S
C2664      H2681   1.110       .  S
C2664      H2682   1.111       .  S
C2666      H2677   1.109       .  S
C2666      H2678   1.107       .  S
C2666      H2679   1.111       .  S
C2668      C2673   1.505       .  S
C2668      C2669   1.401       .  A
C2669      C2670   1.408       .  A
C2669      H2674   1.084       .  S
C2670      C2671   1.422       .  A
C2671      C2675   1.507       .  S
C2671      C2672   1.405       .  A
C2672      H2676   1.084       .  S
C2673      H2683   1.111       .  S
C2673      H2684   1.105       .  S
C2673      H2685   1.111       .  S
C2675      H2686   1.105       .  S
C2675      H2687   1.106       .  S
C2675      H2688   1.111       .  S
C2689      C2690   1.397   1_565  A
C2689      C2694   1.402       .  A
C2689      H2699   1.085       .  S
C2690      C2695   1.480       .  S
C2690      C2691   1.409       .  A
C2691      C2696   1.506       .  S
C2691      C2692   1.403       .  A
C2692      C2693   1.408   1_545  A
C2692      H2697   1.084       .  S
C2693      C2694   1.423       .  A
C2694      C2698   1.504       .  S
C2695      C2700   1.413       .  A
C2695      C2704   1.405       .  A
C2696      H2712   1.110       .  S
C2696      H2713   1.111       .  S
C2696      H2714   1.111       .  S
C2698      H2709   1.104       .  S
C2698      H2710   1.111       .  S
C2698      H2711   1.105       .  S
C2700      C2705   1.510   1_545  S
C2700      C2701   1.395       .  A
C2701      C2702   1.401       .  A
C2701      H2706   1.083   1_545  S
C2702      C2703   1.412       .  A
C2703      C2707   1.505       .  S
C2703      C2704   1.409       .  A
C2704      H2708   1.083       .  S
C2705      H2715   1.111       .  S
C2705      H2716   1.109       .  S
C2705      H2717   1.110       .  S
C2707      H2718   1.108       .  S
C2707      H2719   1.110       .  S
C2707      H2720   1.111       .  S
C2721      C2722   1.403       .  A
C2721      C2726   1.407       .  A
C2721      H2731   1.084       .  S
C2722      C2727   1.482       .  S
C2722      C2723   1.410       .  A
C2723      C2728   1.507       .  S
C2723      C2724   1.401       .  A
C2724      C2725   1.403       .  A
C2724      H2729   1.085       .  S
C2725      C2726   1.417       .  A
C2726      C2730   1.507       .  S
C2727      C2732   1.408       .  A
C2727      C2736   1.399       .  A
C2728      H2744   1.110       .  S
C2728      H2745   1.110       .  S
C2728      H2746   1.111       .  S
C2730      H2741   1.110       .  S
C2730      H2742   1.111       .  S
C2730      H2743   1.106       .  S
C2732      C2737   1.505       .  S
C2732      C2733   1.406       .  A
C2733      C2734   1.408       .  A
C2733      H2738   1.084       .  S
C2734      C2735   1.421       .  A
C2735      C2739   1.508       .  S
C2735      C2736   1.403       .  A
C2736      H2740   1.084       .  S
C2737      H2747   1.111       .  S
C2737      H2748   1.110       .  S
C2737      H2749   1.110       .  S
C2739      H2750   1.111       .  S
C2739      H2751   1.110       .  S
C2739      H2752   1.110       .  S
C2753      C2754   1.399       .  A
C2753      C2758   1.401       .  A
C2753      H2763   1.085       .  S
C2754      C2759   1.480       .  S
C2754      C2755   1.411       .  A
C2755      C2760   1.506       .  S
C2755      C2756   1.404       .  A
C2756      C2757   1.403       .  A
C2756      H2761   1.085       .  S
C2757      C2758   1.417       .  A
C2758      C2762   1.509       .  S
C2759      C2764   1.409       .  A
C2759      C2768   1.399       .  A
C2760      H2776   1.110       .  S
C2760      H2777   1.110       .  S
C2760      H2778   1.111       .  S
C2762      H2773   1.110       .  S
C2762      H2774   1.111       .  S
C2762      H2775   1.106       .  S
C2764      C2769   1.506       .  S
C2764      C2765   1.403       .  A
C2765      C2766   1.405       .  A
C2765      H2770   1.083       .  S
C2766      C2767   1.421       .  A
C2767      C2771   1.509       .  S
C2767      C2768   1.403       .  A
C2768      H2772   1.084       .  S
C2769      H2779   1.111       .  S
C2769      H2780   1.110       .  S
C2769      H2781   1.110       .  S
C2771      H2782   1.111       .  S
C2771      H2783   1.110       .  S
C2771      H2784   1.110       .  S
C2785      C2786   1.397       .  A
C2785      C2790   1.397       .  A
C2785      H2795   1.083       .  S
C2786      C2791   1.472       .  S
C2786      C2787   1.408       .  A
C2787      C2792   1.505       .  S
C2787      C2788   1.405       .  A
C2788      C2789   1.405       .  A
C2788      H2793   1.083       .  S
C2789      C2790   1.418       .  A
C2790      C2794   1.510       .  S
C2791      C2796   1.408       .  A
C2791      C2800   1.397       .  A
C2792      H2808   1.110       .  S
C2792      H2809   1.110       .  S
C2792      H2810   1.111       .  S
C2794      H2805   1.110       .  S
C2794      H2806   1.109       .  S
C2794      H2807   1.110       .  S
C2796      C2801   1.505       .  S
C2796      C2797   1.403       .  A
C2797      C2798   1.405       .  A
C2797      H2802   1.084       .  S
C2798      C2799   1.415       .  A
C2799      C2803   1.505       .  S
C2799      C2800   1.398       .  A
C2800      H2804   1.085       .  S
C2801      H2811   1.111       .  S
C2801      H2812   1.107       .  S
C2801      H2813   1.109       .  S
C2803      H2814   1.111       .  S
C2803      H2815   1.109       .  S
C2803      H2816   1.110       .  S
C2817      C2818   1.402       .  A
C2817      C2822   1.410       .  A
C2817      H2827   1.084       .  S
C2818      C2823   1.481       .  S
C2818      C2819   1.410       .  A
C2819      C2824   1.508       .  S
C2819      C2820   1.398       .  A
C2820      C2821   1.404       .  A
C2820      H2825   1.085       .  S
C2821      C2822   1.419       .  A
C2822      C2826   1.506       .  S
C2823      C2828   1.412       .  A
C2823      C2832   1.400       .  A
C2824      H2840   1.110       .  S
C2824      H2841   1.110       .  S
C2824      H2842   1.111       .  S
C2826      H2837   1.110       .  S
C2826      H2838   1.111       .  S
C2826      H2839   1.111       .  S
C2828      C2833   1.505       .  S
C2828      C2829   1.407       .  A
C2829      C2830   1.404       .  A
C2829      H2834   1.084       .  S
C2830      C2831   1.415       .  A
C2831      C2835   1.508       .  S
C2831      C2832   1.401       .  A
C2832      H2836   1.084       .  S
C2833      H2843   1.111       .  S
C2833      H2844   1.110       .  S
C2833      H2845   1.110       .  S
C2835      H2846   1.111       .  S
C2835      H2847   1.108       .  S
C2835      H2848   1.110       .  S
C2849      C2850   1.401       .  A
C2849      C2854   1.404   1_565  A
C2849      H2859   1.084   1_565  S
C2850      C2855   1.495       .  S
C2850      C2851   1.416       .  A
C2851      C2856   1.506       .  S
C2851      C2852   1.412       .  A
C2852      C2853   1.404       .  A
C2852      H2857   1.084       .  S
C2853      C2854   1.416   1_565  A
C2854      C2858   1.505       .  S
C2855      C2860   1.415   1_554  A
C2855      C2864   1.402   1_565  A
C2856      H2872   1.109       .  S
C2856      H2873   1.110       .  S
C2856      H2874   1.111       .  S
C2858      H2869   1.111       .  S
C2858      H2870   1.106       .  S
C2858      H2871   1.111   1_545  S
C2860      C2865   1.506   1_556  S
C2860      C2861   1.412       .  A
C2861      C2862   1.406   1_565  A
C2861      H2866   1.084       .  S
C2862      C2863   1.419       .  A
C2863      C2867   1.509       .  S
C2863      C2864   1.404   1_556  A
C2864      H2868   1.084       .  S
C2865      H2875   1.111   1_554  S
C2865      H2876   1.109       .  S
C2865      H2877   1.110       .  S
C2867      H2878   1.110       .  S
C2867      H2879   1.107       .  S
C2867      H2880   1.111       .  S
C2881      C2882   1.401       .  A
C2881      C2886   1.406       .  A
C2881      H2891   1.084       .  S
C2882      C2887   1.480       .  S
C2882      C2883   1.410       .  A
C2883      C2888   1.508       .  S
C2883      C2884   1.400       .  A
C2884      C2885   1.405       .  A
C2884      H2889   1.084       .  S
C2885      C2886   1.419       .  A
C2886      C2890   1.507       .  S
C2887      C2892   1.411       .  A
C2887      C2896   1.402       .  A
C2888      H2904   1.109       .  S
C2888      H2905   1.111       .  S
C2888      H2906   1.111       .  S
C2890      H2901   1.110       .  S
C2890      H2902   1.111       .  S
C2890      H2903   1.110       .  S
C2892      C2897   1.506       .  S
C2892      C2893   1.402       .  A
C2893      C2894   1.403       .  A
C2893      H2898   1.084       .  S
C2894      C2895   1.415       .  A
C2895      C2899   1.508       .  S
C2895      C2896   1.401       .  A
C2896      H2900   1.085       .  S
C2897      H2907   1.111       .  S
C2897      H2908   1.109       .  S
C2897      H2909   1.110       .  S
C2899      H2910   1.111       .  S
C2899      H2911   1.107       .  S
C2899      H2912   1.110       .  S
C2913      C2914   1.400       .  A
C2913      C2918   1.404   1_554  A
C2913      H2923   1.085       .  S
C2914      C2919   1.492       .  S
C2914      C2915   1.413   1_554  A
C2915      C2920   1.505   1_556  S
C2915      C2916   1.412       .  A
C2916      C2917   1.408       .  A
C2916      H2921   1.084       .  S
C2917      C2918   1.421       .  A
C2918      C2922   1.509       .  S
C2919      C2924   1.415       .  A
C2919      C2928   1.402       .  A
C2920      H2936   1.110       .  S
C2920      H2937   1.110       .  S
C2920      H2938   1.111   1_554  S
C2922      H2933   1.111       .  S
C2922      H2934   1.109       .  S
C2922      H2935   1.111       .  S
C2924      C2929   1.506       .  S
C2924      C2925   1.410       .  A
C2925      C2926   1.403       .  A
C2925      H2930   1.084       .  S
C2926      C2927   1.415       .  A
C2927      C2931   1.508       .  S
C2927      C2928   1.404       .  A
C2928      H2932   1.085       .  S
C2929      H2939   1.111       .  S
C2929      H2940   1.109       .  S
C2929      H2941   1.110       .  S
C2931      H2942   1.110       .  S
C2931      H2943   1.109       .  S
C2931      H2944   1.110       .  S
C2945      C2946   1.398       .  A
C2945      C2950   1.399       .  A
C2945      H2955   1.085       .  S
C2946      C2951   1.481       .  S
C2946      C2947   1.410       .  A
C2947      C2952   1.506       .  S
C2947      C2948   1.405       .  A
C2948      C2949   1.407       .  A
C2948      H2953   1.084       .  S
C2949      C2950   1.422       .  A
C2950      C2954   1.510       .  S
C2951      C2956   1.412       .  A
C2951      C2960   1.401       .  A
C2952      H2968   1.110       .  S
C2952      H2969   1.110       .  S
C2952      H2970   1.111       .  S
C2954      H2965   1.111       .  S
C2954      H2966   1.109       .  S
C2954      H2967   1.110       .  S
C2956      C2961   1.508       .  S
C2956      C2957   1.401       .  A
C2957      C2958   1.403       .  A
C2957      H2962   1.084       .  S
C2958      C2959   1.416       .  A
C2959      C2963   1.506       .  S
C2959      C2960   1.405       .  A
C2960      H2964   1.084       .  S
C2961      H2971   1.111       .  S
C2961      H2972   1.109       .  S
C2961      H2973   1.110       .  S
C2963      H2974   1.111       .  S
C2963      H2975   1.110       .  S
C2963      H2976   1.110       .  S
C2977      C2978   1.400       .  A
C2977      C2982   1.402       .  A
C2977      H2987   1.084       .  S
C2978      C2983   1.478       .  S
C2978      C2979   1.411       .  A
C2979      C2984   1.507       .  S
C2979      C2980   1.401       .  A
C2980      C2981   1.404       .  A
C2980      H2985   1.084       .  S
C2981      C2982   1.417       .  A
C2982      C2986   1.507       .  S
C2983      C2988   1.409       .  A
C2983      C2992   1.398       .  A
C2984      H3000   1.109       .  S
C2984      H3001   1.110       .  S
C2984      H3002   1.111       .  S
C2986      H2997   1.110       .  S
C2986      H2998   1.110       .  S
C2986      H2999   1.109       .  S
C2988      C2993   1.504       .  S
C2988      C2989   1.408       .  A
C2989      C2990   1.406       .  A
C2989      H2994   1.084       .  S
C2990      C2991   1.415       .  A
C2991      C2995   1.505       .  S
C2991      C2992   1.397       .  A
C2992      H2996   1.085       .  S
C2993      H3003   1.111       .  S
C2993      H3004   1.110       .  S
C2993      H3005   1.110       .  S
C2995      H3006   1.106       .  S
C2995      H3007   1.110       .  S
C2995      H3008   1.111       .  S
C3009      C3010   1.401       .  A
C3009      C3014   1.412   1_545  A
C3009      H3019   1.084       .  S
C3010      C3015   1.487       .  S
C3010      C3011   1.411   1_545  A
C3011      C3016   1.509       .  S
C3011      C3012   1.401       .  A
C3012      C3013   1.408       .  A
C3012      H3017   1.083       .  S
C3013      C3014   1.421       .  A
C3014      C3018   1.503   1_565  S
C3015      C3020   1.413   1_545  A
C3015      C3024   1.402       .  A
C3016      H3032   1.110   1_565  S
C3016      H3033   1.108       .  S
C3016      H3034   1.111       .  S
C3018      H3029   1.106   1_545  S
C3018      H3030   1.110       .  S
C3018      H3031   1.108       .  S
C3020      C3025   1.507       .  S
C3020      C3021   1.406       .  A
C3021      C3022   1.402   1_565  A
C3021      H3026   1.080       .  S
C3022      C3023   1.415       .  A
C3023      C3027   1.506       .  S
C3023      C3024   1.406       .  A
C3024      H3028   1.084       .  S
C3025      H3035   1.111       .  S
C3025      H3036   1.110       .  S
C3025      H3037   1.108       .  S
C3027      H3038   1.111       .  S
C3027      H3039   1.110       .  S
C3027      H3040   1.107       .  S
C3041      C3042   1.400       .  A
C3041      C3046   1.405       .  A
C3041      H3051   1.084       .  S
C3042      C3047   1.488       .  S
C3042      C3043   1.416       .  A
C3043      C3048   1.509       .  S
C3043      C3044   1.404       .  A
C3044      C3045   1.406       .  A
C3044      H3049   1.085       .  S
C3045      C3046   1.421       .  A
C3046      C3050   1.505       .  S
C3047      C3052   1.412       .  A
C3047      C3056   1.401       .  A
C3048      H3064   1.111       .  S
C3048      H3065   1.106       .  S
C3048      H3066   1.110       .  S
C3050      H3061   1.111       .  S
C3050      H3062   1.105       .  S
C3050      H3063   1.102       .  S
C3052      C3057   1.509       .  S
C3052      C3053   1.400       .  A
C3053      C3054   1.406       .  A
C3053      H3058   1.083       .  S
C3054      C3055   1.416       .  A
C3055      C3059   1.505       .  S
C3055      C3056   1.407       .  A
C3056      H3060   1.078       .  S
C3057      H3067   1.111       .  S
C3057      H3068   1.109       .  S
C3057      H3069   1.110       .  S
C3059      H3070   1.111       .  S
C3059      H3071   1.107       .  S
C3059      H3072   1.107       .  S
C3073      C3074   1.399       .  A
C3073      C3078   1.400       .  A
C3073      H3083   1.085       .  S
C3074      C3079   1.477       .  S
C3074      C3075   1.408       .  A
C3075      C3080   1.504       .  S
C3075      C3076   1.405       .  A
C3076      C3077   1.405       .  A
C3076      H3081   1.084       .  S
C3077      C3078   1.419       .  A
C3078      C3082   1.511       .  S
C3079      C3084   1.410       .  A
C3079      C3088   1.399       .  A
C3080      H3096   1.110       .  S
C3080      H3097   1.110       .  S
C3080      H3098   1.111       .  S
C3082      H3093   1.111       .  S
C3082      H3094   1.107       .  S
C3082      H3095   1.109       .  S
C3084      C3089   1.506       .  S
C3084      C3085   1.403       .  A
C3085      C3086   1.402       .  A
C3085      H3090   1.080       .  S
C3086      C3087   1.419       .  A
C3087      C3091   1.508       .  S
C3087      C3088   1.401       .  A
C3088      H3092   1.085       .  S
C3089      H3099   1.111       .  S
C3089      H3100   1.110       .  S
C3089      H3101   1.110       .  S
C3091      H3102   1.110       .  S
C3091      H3103   1.108   1_565  S
C3091      H3104   1.111       .  S
C3105      C3106   1.403       .  A
C3105      C3110   1.411       .  A
C3105      H3115   1.084       .  S
C3106      C3111   1.493       .  S
C3106      C3107   1.411   1_545  A
C3107      C3112   1.507       .  S
C3107      C3108   1.406       .  A
C3108      C3109   1.412       .  A
C3108      H3113   1.082       .  S
C3109      C3110   1.424   1_565  A
C3110      C3114   1.506       .  S
C3111      C3116   1.410       .  A
C3111      C3120   1.392   1_545  A
C3112      H3128   1.110       .  S
C3112      H3129   1.110       .  S
C3112      H3130   1.111       .  S
C3114      H3125   1.110       .  S
C3114      H3126   1.110       .  S
C3114      H3127   1.109       .  S
C3116      C3121   1.504       .  S
C3116      C3117   1.418       .  A
C3117      C3118   1.417   1_545  A
C3117      H3122   1.079       .  S
C3118      C3119   1.436       .  A
C3119      C3123   1.512       .  S
C3119      C3120   1.400       .  A
C3120      H3124   1.086       .  S
C3121      H3131   1.111       .  S
C3121      H3132   1.110       .  S
C3121      H3133   1.110       .  S
C3123      H3134   1.111       .  S
C3123      H3135   1.096       .  S
C3123      H3136   1.111       .  S
C3137      C3138   1.397       .  A
C3137      C3142   1.407       .  A
C3137      H3147   1.084       .  S
C3138      C3143   1.487       .  S
C3138      C3139   1.407       .  A
C3139      C3144   1.508       .  S
C3139      C3140   1.407       .  A
C3140      C3141   1.416       .  A
C3140      H3145   1.073       .  S
C3141      C3142   1.432       .  A
C3142      C3146   1.511       .  S
C3143      C3148   1.408       .  A
C3143      C3152   1.393       .  A
C3144      H3160   1.110       .  S
C3144      H3161   1.110       .  S
C3144      H3162   1.110       .  S
C3146      H3157   1.110       .  S
C3146      H3158   1.111       .  S
C3146      H3159   1.102       .  S
C3148      C3153   1.505       .  S
C3148      C3149   1.412       .  A
C3149      C3150   1.415       .  A
C3149      H3154   1.078       .  S
C3150      C3151   1.436       .  A
C3151      C3155   1.518       .  S
C3151      C3152   1.401       .  A
C3152      H3156   1.085       .  S
C3153      H3163   1.111       .  S
C3153      H3164   1.110       .  S
C3153      H3165   1.109       .  S
C3155      H3166   1.105       .  S
C3155      H3167   1.104       .  S
C3155      H3168   1.111       .  S
C3169      C3170   1.399       .  A
C3169      C3174   1.401       .  A
C3169      H3179   1.086       .  S
C3170      C3175   1.485       .  S
C3170      C3171   1.412       .  A
C3171      C3176   1.503       .  S
C3171      C3172   1.406       .  A
C3172      C3173   1.402       .  A
C3172      H3177   1.084       .  S
C3173      C3174   1.422       .  A
C3174      C3178   1.510       .  S
C3175      C3180   1.412       .  A
C3175      C3184   1.401       .  A
C3176      H3192   1.110       .  S
C3176      H3193   1.110       .  S
C3176      H3194   1.106       .  S
C3178      H3189   1.111       .  S
C3178      H3190   1.110       .  S
C3178      H3191   1.107       .  S
C3180      C3185   1.506       .  S
C3180      C3181   1.406       .  A
C3181      C3182   1.404       .  A
C3181      H3186   1.084       .  S
C3182      C3183   1.416       .  A
C3183      C3187   1.509       .  S
C3183      C3184   1.403       .  A
C3184      H3188   1.084       .  S
C3185      H3195   1.111       .  S
C3185      H3196   1.110       .  S
C3185      H3197   1.110       .  S
C3187      H3198   1.107       .  S
C3187      H3199   1.110       .  S
C3187      H3200   1.110       .  S
C3201      C3202   1.395       .  A
C3201      C3206   1.405       .  A
C3201      H3211   1.085       .  S
C3202      C3207   1.489       .  S
C3202      C3203   1.407       .  A
C3203      C3208   1.505       .  S
C3203      C3204   1.410       .  A
C3204      C3205   1.415       .  A
C3204      H3209   1.076       .  S
C3205      C3206   1.437       .  A
C3206      C3210   1.518   1_545  S
C3207      C3212   1.408       .  A
C3207      C3216   1.401       .  A
C3208      H3224   1.110       .  S
C3208      H3225   1.110       .  S
C3208      H3226   1.110       .  S
C3210      H3221   1.105       .  S
C3210      H3222   1.111       .  S
C3210      H3223   1.105       .  S
C3212      C3217   1.507       .  S
C3212      C3213   1.404       .  A
C3213      C3214   1.414       .  A
C3213      H3218   1.079       .  S
C3214      C3215   1.427       .  A
C3215      C3219   1.507       .  S
C3215      C3216   1.409       .  A
C3216      H3220   1.084       .  S
C3217      H3227   1.111       .  S
C3217      H3228   1.110       .  S
C3217      H3229   1.110       .  S
C3219      H3230   1.110       .  S
C3219      H3231   1.105       .  S
C3219      H3232   1.110       .  S
C3233      C3234   1.401   1_565  A
C3233      C3238   1.397       .  A
C3233      H3243   1.085       .  S
C3234      C3239   1.486       .  S
C3234      C3235   1.414       .  A
C3235      C3240   1.506       .  S
C3235      C3236   1.408       .  A
C3236      C3237   1.403       .  A
C3236      H3241   1.084       .  S
C3237      C3238   1.414   1_545  A
C3238      C3242   1.509       .  S
C3239      C3244   1.412       .  A
C3239      C3248   1.404       .  A
C3240      H3256   1.109       .  S
C3240      H3257   1.110       .  S
C3240      H3258   1.111       .  S
C3242      H3253   1.110       .  S
C3242      H3254   1.110       .  S
C3242      H3255   1.106       .  S
C3244      C3249   1.511       .  S
C3244      C3245   1.397       .  A
C3245      C3246   1.408       .  A
C3245      H3250   1.083   1_545  S
C3246      C3247   1.418       .  A
C3247      C3251   1.506       .  S
C3247      C3248   1.410       .  A
C3248      H3252   1.084       .  S
C3249      H3259   1.111       .  S
C3249      H3260   1.108   1_545  S
C3249      H3261   1.111       .  S
C3251      H3262   1.111       .  S
C3251      H3263   1.110   1_545  S
C3251      H3264   1.107       .  S
C3265      C3266   1.391       .  A
C3265      C3270   1.395       .  A
C3265      H3275   1.086       .  S
C3266      C3271   1.492       .  S
C3266      C3267   1.412       .  A
C3267      C3272   1.504       .  S
C3267      C3268   1.418       .  A
C3268      C3269   1.416       .  A
C3268      H3273   1.079       .  S
C3269      C3270   1.434       .  A
C3270      C3274   1.510       .  S
C3271      C3276   1.412       .  A
C3271      C3280   1.400       .  A
C3272      H3288   1.109       .  S
C3272      H3289   1.111       .  S
C3272      H3290   1.111       .  S
C3274      H3285   1.111       .  S
C3274      H3286   1.110       .  S
C3274      H3287   1.092       .  S
C3276      C3281   1.507       .  S
C3276      C3277   1.408       .  A
C3277      C3278   1.412       .  A
C3277      H3282   1.081       .  S
C3278      C3279   1.427       .  A
C3279      C3283   1.507       .  S
C3279      C3280   1.408       .  A
C3280      H3284   1.084       .  S
C3281      H3291   1.111       .  S
C3281      H3292   1.109       .  S
C3281      H3293   1.111       .  S
C3283      H3294   1.111       .  S
C3283      H3295   1.107       .  S
C3283      H3296   1.110       .  S
C3297      C3298   1.404       .  A
C3297      C3302   1.409       .  A
C3297      H3307   1.083       .  S
C3298      C3303   1.474       .  S
C3298      C3299   1.410       .  A
C3299      C3304   1.511       .  S
C3299      C3300   1.390       .  A
C3300      C3301   1.401       .  A
C3300      H3305   1.080       .  S
C3301      C3302   1.414       .  A
C3302      C3306   1.506       .  S
C3303      C3308   1.407       .  A
C3303      C3312   1.398       .  A
C3304      H3320   1.109       .  S
C3304      H3321   1.110       .  S
C3304      H3322   1.111       .  S
C3306      H3317   1.111       .  S
C3306      H3318   1.107       .  S
C3306      H3319   1.110       .  S
C3308      C3313   1.506       .  S
C3308      C3309   1.401       .  A
C3309      C3310   1.407       .  A
C3309      H3314   1.084       .  S
C3310      C3311   1.420       .  A
C3311      C3315   1.506       .  S
C3311      C3312   1.401       .  A
C3312      H3316   1.084       .  S
C3313      H3323   1.111       .  S
C3313      H3324   1.110       .  S
C3313      H3325   1.111       .  S
C3315      H3326   1.106       .  S
C3315      H3327   1.105       .  S
C3315      H3328   1.111       .  S
C3329      C3330   1.396       .  A
C3329      C3334   1.400       .  A
C3329      H3339   1.085       .  S
C3330      C3335   1.481       .  S
C3330      C3331   1.408       .  A
C3331      C3336   1.499       .  S
C3331      C3332   1.408       .  A
C3332      C3333   1.407       .  A
C3332      H3337   1.084       .  S
C3333      C3334   1.421       .  A
C3334      C3338   1.505       .  S
C3335      C3340   1.407       .  A
C3335      C3344   1.400       .  A
C3336      H3352   1.110       .  S
C3336      H3353   1.105       .  S
C3336      H3354   1.111       .  S
C3338      H3349   1.105       .  S
C3338      H3350   1.111       .  S
C3338      H3351   1.108       .  S
C3340      C3345   1.507       .  S
C3340      C3341   1.399       .  A
C3341      C3342   1.409       .  A
C3341      H3346   1.084       .  S
C3342      C3343   1.422       .  A
C3343      C3347   1.504       .  S
C3343      C3344   1.409       .  A
C3344      H3348   1.084       .  S
C3345      H3355   1.111       .  S
C3345      H3356   1.110       .  S
C3345      H3357   1.108       .  S
C3347      H3358   1.111       .  S
C3347      H3359   1.101       .  S
C3347      H3360   1.109       .  S
C3361      C3362   1.398       .  A
C3361      C3366   1.399       .  A
C3361      H3371   1.084       .  S
C3362      C3367   1.472       .  S
C3362      C3363   1.406       .  A
C3363      C3368   1.505       .  S
C3363      C3364   1.403       .  A
C3364      C3365   1.408       .  A
C3364      H3369   1.083       .  S
C3365      C3366   1.418       .  A
C3366      C3370   1.509       .  S
C3367      C3372   1.409       .  A
C3367      C3376   1.399       .  A
C3368      H3384   1.110       .  S
C3368      H3385   1.110       .  S
C3368      H3386   1.111       .  S
C3370      H3381   1.109       .  S
C3370      H3382   1.111       .  S
C3370      H3383   1.110       .  S
C3372      C3377   1.508       .  S
C3372      C3373   1.399       .  A
C3373      C3374   1.404       .  A
C3373      H3378   1.084       .  S
C3374      C3375   1.417       .  A
C3375      C3379   1.507       .  S
C3375      C3376   1.403       .  A
C3376      H3380   1.084       .  S
C3377      H3387   1.111       .  S
C3377      H3388   1.110       .  S
C3377      H3389   1.110       .  S
C3379      H3390   1.111       .  S
C3379      H3391   1.111       .  S
C3379      H3392   1.110       .  S
C3393      C3394   1.400       .  A
C3393      C3398   1.403       .  A
C3393      H3403   1.084       .  S
C3394      C3399   1.475       .  S
C3394      C3395   1.408       .  A
C3395      C3400   1.506       .  S
C3395      C3396   1.401       .  A
C3396      C3397   1.405       .  A
C3396      H3401   1.084       .  S
C3397      C3398   1.417       .  A
C3398      C3402   1.508       .  S
C3399      C3404   1.408       .  A
C3399      C3408   1.400       .  A
C3400      H3416   1.110       .  S
C3400      H3417   1.110       .  S
C3400      H3418   1.111       .  S
C3402      H3413   1.111       .  S
C3402      H3414   1.111       .  S
C3402      H3415   1.110       .  S
C3404      C3409   1.506       .  S
C3404      C3405   1.403       .  A
C3405      C3406   1.405       .  A
C3405      H3410   1.084       .  S
C3406      C3407   1.416       .  A
C3407      C3411   1.509       .  S
C3407      C3408   1.400       .  A
C3408      H3412   1.085       .  S
C3409      H3419   1.111       .  S
C3409      H3420   1.110       .  S
C3409      H3421   1.110       .  S
C3411      H3422   1.111       .  S
C3411      H3423   1.106       .  S
C3411      H3424   1.110       .  S
C3425      C3426   1.399       .  A
C3425      C3430   1.397       .  A
C3425      H3435   1.084       .  S
C3426      C3431   1.475       .  S
C3426      C3427   1.411       .  A
C3427      C3432   1.504       .  S
C3427      C3428   1.405       .  A
C3428      C3429   1.402       .  A
C3428      H3433   1.084       .  S
C3429      C3430   1.412       .  A
C3430      C3434   1.509       .  S
C3431      C3436   1.406       .  A
C3431      C3440   1.399       .  A
C3432      H3448   1.106       .  S
C3432      H3449   1.109       .  S
C3432      H3450   1.111       .  S
C3434      H3445   1.111       .  S
C3434      H3446   1.109       .  S
C3434      H3447   1.110       .  S
C3436      C3441   1.505       .  S
C3436      C3437   1.404       .  A
C3437      C3438   1.409       .  A
C3437      H3442   1.083       .  S
C3438      C3439   1.419       .  A
C3439      C3443   1.509       .  S
C3439      C3440   1.399       .  A
C3440      H3444   1.081       .  S
C3441      H3451   1.110       .  S
C3441      H3452   1.110       .  S
C3441      H3453   1.109       .  S
C3443      H3454   1.110       .  S
C3443      H3455   1.110       .  S
C3443      H3456   1.111       .  S
C3457      C3458   1.400       .  A
C3457      C3462   1.406       .  A
C3457      H3467   1.084       .  S
C3458      C3463   1.475       .  S
C3458      C3459   1.409       .  A
C3459      C3464   1.509       .  S
C3459      C3460   1.399       .  A
C3460      C3461   1.405       .  A
C3460      H3465   1.084       .  S
C3461      C3462   1.418       .  A
C3462      C3466   1.507       .  S
C3463      C3468   1.410       .  A
C3463      C3472   1.399       .  A
C3464      H3480   1.110       .  S
C3464      H3481   1.109       .  S
C3464      H3482   1.111       .  S
C3466      H3477   1.110       .  S
C3466      H3478   1.111       .  S
C3466      H3479   1.111       .  S
C3468      C3473   1.505       .  S
C3468      C3469   1.406       .  A
C3469      C3470   1.404       .  A
C3469      H3474   1.084       .  S
C3470      C3471   1.415       .  A
C3471      C3475   1.509       .  S
C3471      C3472   1.397       .  A
C3472      H3476   1.085       .  S
C3473      H3483   1.111       .  S
C3473      H3484   1.110       .  S
C3473      H3485   1.109       .  S
C3475      H3486   1.111       .  S
C3475      H3487   1.108       .  S
C3475      H3488   1.110       .  S
C3489      C3490   1.399       .  A
C3489      C3494   1.403       .  A
C3489      H3499   1.084       .  S
C3490      C3495   1.491       .  S
C3490      C3491   1.412       .  A
C3491      C3496   1.504       .  S
C3491      C3492   1.413       .  A
C3492      C3493   1.408       .  A
C3492      H3497   1.084       .  S
C3493      C3494   1.422       .  A
C3494      C3498   1.509       .  S
C3495      C3500   1.410       .  A
C3495      C3504   1.402       .  A
C3496      H3512   1.110       .  S
C3496      H3513   1.110       .  S
C3496      H3514   1.111       .  S
C3498      H3509   1.109       .  S
C3498      H3510   1.111       .  S
C3498      H3511   1.111       .  S
C3500      C3505   1.507       .  S
C3500      C3501   1.404       .  A
C3501      C3502   1.407       .  A
C3501      H3506   1.084       .  S
C3502      C3503   1.423       .  A
C3503      C3507   1.508       .  S
C3503      C3504   1.412       .  A
C3504      H3508   1.084       .  S
C3505      H3515   1.111       .  S
C3505      H3516   1.110       .  S
C3505      H3517   1.110       .  S
C3507      H3518   1.110       .  S
C3507      H3519   1.102       .  S
C3507      H3520   1.111       .  S
C3521      C3522   1.401       .  A
C3521      C3526   1.400       .  A
C3521      H3531   1.084       .  S
C3522      C3527   1.483       .  S
C3522      C3523   1.413       .  A
C3523      C3528   1.507       .  S
C3523      C3524   1.405       .  A
C3524      C3525   1.404       .  A
C3524      H3529   1.084       .  S
C3525      C3526   1.416       .  A
C3526      C3530   1.510       .  S
C3527      C3532   1.411       .  A
C3527      C3536   1.401       .  A
C3528      H3544   1.109       .  S
C3528      H3545   1.110       .  S
C3528      H3546   1.111       .  S
C3530      H3541   1.110       .  S
C3530      H3542   1.111       .  S
C3530      H3543   1.107       .  S
C3532      C3537   1.508       .  S
C3532      C3533   1.402       .  A
C3533      C3534   1.405       .  A
C3533      H3538   1.084       .  S
C3534      C3535   1.419       .  A
C3535      C3539   1.508   1_545  S
C3535      C3536   1.404       .  A
C3536      H3540   1.084       .  S
C3537      H3547   1.111       .  S
C3537      H3548   1.109       .  S
C3537      H3549   1.110       .  S
C3539      H3550   1.111       .  S
C3539      H3551   1.110       .  S
C3539      H3552   1.110       .  S
C3553      C3554   1.403       .  A
C3553      C3558   1.409       .  A
C3553      H3563   1.083       .  S
C3554      C3559   1.491       .  S
C3554      C3555   1.412   1_565  A
C3555      C3560   1.506       .  S
C3555      C3556   1.407       .  A
C3556      C3557   1.405   1_545  A
C3556      H3561   1.084       .  S
C3557      C3558   1.418       .  A
C3558      C3562   1.508       .  S
C3559      C3564   1.411   1_565  A
C3559      C3568   1.398       .  A
C3560      H3576   1.110       .  S
C3560      H3577   1.110       .  S
C3560      H3578   1.111       .  S
C3562      H3573   1.110       .  S
C3562      H3574   1.111       .  S
C3562      H3575   1.106       .  S
C3564      C3569   1.505       .  S
C3564      C3565   1.412       .  A
C3565      C3566   1.409   1_545  A
C3565      H3570   1.083       .  S
C3566      C3567   1.425       .  A
C3567      C3571   1.507       .  S
C3567      C3568   1.406       .  A
C3568      H3572   1.084       .  S
C3569      H3579   1.110       .  S
C3569      H3580   1.110       .  S
C3569      H3581   1.110       .  S
C3571      H3582   1.111       .  S
C3571      H3583   1.108       .  S
C3571      H3584   1.110       .  S
C3585      C3586   1.400       .  A
C3585      C3590   1.405       .  A
C3585      H3595   1.084       .  S
C3586      C3591   1.475       .  S
C3586      C3587   1.413       .  A
C3587      C3592   1.510       .  S
C3587      C3588   1.396       .  A
C3588      C3589   1.404       .  A
C3588      H3593   1.085       .  S
C3589      C3590   1.419       .  A
C3590      C3594   1.507       .  S
C3591      C3596   1.413       .  A
C3591      C3600   1.402       .  A
C3592      H3608   1.110       .  S
C3592      H3609   1.107       .  S
C3592      H3610   1.109       .  S
C3594      H3605   1.110       .  S
C3594      H3606   1.111       .  S
C3594      H3607   1.110       .  S
C3596      C3601   1.505       .  S
C3596      C3597   1.399       .  A
C3597      C3598   1.397       .  A
C3597      H3602   1.084       .  S
C3598      C3599   1.412       .  A
C3599      C3603   1.505       .  S
C3599      C3600   1.402       .  A
C3600      H3604   1.085       .  S
C3601      H3611   1.105       .  S
C3601      H3612   1.110       .  S
C3601      H3613   1.107       .  S
C3603      H3614   1.110       .  S
C3603      H3615   1.108       .  S
C3603      H3616   1.110       .  S
C3617      C3618   1.401       .  A
C3617      C3622   1.404       .  A
C3617      H3627   1.084       .  S
C3618      C3623   1.478       .  S
C3618      C3619   1.410       .  A
C3619      C3624   1.507       .  S
C3619      C3620   1.401       .  A
C3620      C3621   1.402       .  A
C3620      H3625   1.084       .  S
C3621      C3622   1.414       .  A
C3622      C3626   1.507       .  S
C3623      C3628   1.409       .  A
C3623      C3632   1.400       .  A
C3624      H3640   1.110       .  S
C3624      H3641   1.110       .  S
C3624      H3642   1.111       .  S
C3626      H3637   1.111       .  S
C3626      H3638   1.111       .  S
C3626      H3639   1.109       .  S
C3628      C3633   1.506       .  S
C3628      C3629   1.402       .  A
C3629      C3630   1.404       .  A
C3629      H3634   1.084       .  S
C3630      C3631   1.419       .  A
C3631      C3635   1.509       .  S
C3631      C3632   1.403       .  A
C3632      H3636   1.085       .  S
C3633      H3643   1.111       .  S
C3633      H3644   1.110       .  S
C3633      H3645   1.110       .  S
C3635      H3646   1.110       .  S
C3635      H3647   1.106       .  S
C3635      H3648   1.111       .  S
C3649      C3650   1.398       .  A
C3649      C3654   1.396       .  A
C3649      H3659   1.085       .  S
C3650      C3655   1.473       .  S
C3650      C3651   1.409       .  A
C3651      C3656   1.505       .  S
C3651      C3652   1.404       .  A
C3652      C3653   1.404       .  A
C3652      H3657   1.084       .  S
C3653      C3654   1.416       .  A
C3654      C3658   1.510       .  S
C3655      C3660   1.409       .  A
C3655      C3664   1.399       .  A
C3656      H3672   1.110       .  S
C3656      H3673   1.110       .  S
C3656      H3674   1.111       .  S
C3658      H3669   1.111       .  S
C3658      H3670   1.110       .  S
C3658      H3671   1.107       .  S
C3660      C3665   1.506       .  S
C3660      C3661   1.403       .  A
C3661      C3662   1.405       .  A
C3661      H3666   1.083       .  S
C3662      C3663   1.417       .  A
C3663      C3667   1.508       .  S
C3663      C3664   1.400       .  A
C3664      H3668   1.084       .  S
C3665      H3675   1.111       .  S
C3665      H3676   1.110       .  S
C3665      H3677   1.110       .  S
C3667      H3678   1.111       .  S
C3667      H3679   1.109       .  S
C3667      H3680   1.110       .  S
C3681      C3682   1.400       .  A
C3681      C3686   1.406       .  A
C3681      H3691   1.084       .  S
C3682      C3687   1.471       .  S
C3682      C3683   1.408       .  A
C3683      C3688   1.510       .  S
C3683      C3684   1.395       .  A
C3684      C3685   1.405       .  A
C3684      H3689   1.083       .  S
C3685      C3686   1.419       .  A
C3686      C3690   1.506       .  S
C3687      C3692   1.409       .  A
C3687      C3696   1.399       .  A
C3688      H3704   1.110       .  S
C3688      H3705   1.111       .  S
C3688      H3706   1.109       .  S
C3690      H3701   1.111       .  S
C3690      H3702   1.110       .  S
C3690      H3703   1.110       .  S
C3692      C3697   1.505       .  S
C3692      C3693   1.403       .  A
C3693      C3694   1.403       .  A
C3693      H3698   1.084       .  S
C3694      C3695   1.411       .  A
C3695      C3699   1.505       .  S
C3695      C3696   1.397       .  A
C3696      H3700   1.084       .  S
C3697      H3707   1.111       .  S
C3697      H3708   1.110       .  S
C3697      H3709   1.109       .  S
C3699      H3710   1.108       .  S
C3699      H3711   1.110       .  S
C3699      H3712   1.108       .  S
C3713      C3714   1.399       .  A
C3713      C3718   1.402       .  A
C3713      H3723   1.084       .  S
C3714      C3719   1.477       .  S
C3714      C3715   1.409       .  A
C3715      C3720   1.506       .  S
C3715      C3716   1.403       .  A
C3716      C3717   1.404       .  A
C3716      H3721   1.084       .  S
C3717      C3718   1.417       .  A
C3718      C3722   1.508       .  S
C3719      C3724   1.410       .  A
C3719      C3728   1.399       .  A
C3720      H3736   1.110       .  S
C3720      H3737   1.110       .  S
C3720      H3738   1.111       .  S
C3722      H3733   1.109       .  S
C3722      H3734   1.111       .  S
C3722      H3735   1.111       .  S
C3724      C3729   1.506       .  S
C3724      C3725   1.403       .  A
C3725      C3726   1.404       .  A
C3725      H3730   1.084       .  S
C3726      C3727   1.418       .  A
C3727      C3731   1.509       .  S
C3727      C3728   1.400       .  A
C3728      H3732   1.085       .  S
C3729      H3739   1.111       .  S
C3729      H3740   1.110       .  S
C3729      H3741   1.110       .  S
C3731      H3742   1.111       .  S
C3731      H3743   1.106       .  S
C3731      H3744   1.110       .  S
C3745      C3746   1.403       .  A
C3745      C3750   1.408   1_554  A
C3745      H3755   1.084       .  S
C3746      C3751   1.486       .  S
C3746      C3747   1.411       .  A
C3747      C3752   1.508       .  S
C3747      C3748   1.402   1_554  A
C3748      C3749   1.404       .  A
C3748      H3753   1.084       .  S
C3749      C3750   1.417       .  A
C3750      C3754   1.507       .  S
C3751      C3756   1.411       .  A
C3751      C3760   1.403       .  A
C3752      H3768   1.110       .  S
C3752      H3769   1.110       .  S
C3752      H3770   1.111       .  S
C3754      H3765   1.111       .  S
C3754      H3766   1.110       .  S
C3754      H3767   1.105       .  S
C3756      C3761   1.507       .  S
C3756      C3757   1.403       .  A
C3757      C3758   1.404       .  A
C3757      H3762   1.084       .  S
C3758      C3759   1.418       .  A
C3759      C3763   1.508       .  S
C3759      C3760   1.407       .  A
C3760      H3764   1.084       .  S
C3761      H3771   1.111       .  S
C3761      H3772   1.110       .  S
C3761      H3773   1.110       .  S
C3763      H3774   1.110       .  S
C3763      H3775   1.105       .  S
C3763      H3776   1.111       .  S
C3777      C3778   1.398       .  A
C3777      C3782   1.398       .  A
C3777      H3787   1.084       .  S
C3778      C3783   1.478       .  S
C3778      C3779   1.409       .  A
C3779      C3784   1.505       .  S
C3779      C3780   1.407       .  A
C3780      C3781   1.407       .  A
C3780      H3785   1.084       .  S
C3781      C3782   1.418       .  A
C3782      C3786   1.510       .  S
C3783      C3788   1.409       .  A
C3783      C3792   1.401       .  A
C3784      H3800   1.110       .  S
C3784      H3801   1.110       .  S
C3784      H3802   1.111       .  S
C3786      H3797   1.109       .  S
C3786      H3798   1.111       .  S
C3786      H3799   1.111       .  S
C3788      C3793   1.507       .  S
C3788      C3789   1.401       .  A
C3789      C3790   1.405       .  A
C3789      H3794   1.084       .  S
C3790      C3791   1.419       .  A
C3791      C3795   1.508       .  S
C3791      C3792   1.405       .  A
C3792      H3796   1.085       .  S
C3793      H3803   1.111       .  S
C3793      H3804   1.110       .  S
C3793      H3805   1.110       .  S
C3795      H3806   1.111       .  S
C3795      H3807   1.103       .  S
C3795      H3808   1.110       .  S
C3809      C3810   1.400       .  A
C3809      C3814   1.401   1_554  A
C3809      H3819   1.085       .  S
C3810      C3815   1.491       .  S
C3810      C3811   1.415       .  A
C3811      C3816   1.505       .  S
C3811      C3812   1.413   1_554  A
C3812      C3813   1.406       .  A
C3812      H3817   1.084       .  S
C3813      C3814   1.417       .  A
C3814      C3818   1.509       .  S
C3815      C3820   1.413       .  A
C3815      C3824   1.401       .  A
C3816      H3832   1.110       .  S
C3816      H3833   1.111       .  S
C3816      H3834   1.111       .  S
C3818      H3829   1.111       .  S
C3818      H3830   1.110       .  S
C3818      H3831   1.108       .  S
C3820      C3825   1.506       .  S
C3820      C3821   1.409       .  A
C3821      C3822   1.406       .  A
C3821      H3826   1.084       .  S
C3822      C3823   1.420       .  A
C3823      C3827   1.509       .  S
C3823      C3824   1.404       .  A
C3824      H3828   1.085       .  S
C3825      H3835   1.111       .  S
C3825      H3836   1.109       .  S
C3825      H3837   1.110       .  S
C3827      H3838   1.110       .  S
C3827      H3839   1.107       .  S
C3827      H3840   1.111       .  S
C3841      C3842   1.398       .  A
C3841      C3846   1.405       .  A
C3841      H3851   1.084       .  S
C3842      C3847   1.474       .  S
C3842      C3843   1.410       .  A
C3843      C3848   1.508       .  S
C3843      C3844   1.397       .  A
C3844      C3845   1.405       .  A
C3844      H3849   1.084       .  S
C3845      C3846   1.421       .  A
C3846      C3850   1.507       .  S
C3847      C3852   1.409       .  A
C3847      C3856   1.403       .  A
C3848      H3864   1.105       .  S
C3848      H3865   1.107       .  S
C3848      H3866   1.111       .  S
C3850      H3861   1.111       .  S
C3850      H3862   1.110       .  S
C3850      H3863   1.110       .  S
C3852      C3857   1.507       .  S
C3852      C3853   1.400       .  A
C3853      C3854   1.402       .  A
C3853      H3858   1.084       .  S
C3854      C3855   1.410       .  A
C3855      C3859   1.506       .  S
C3855      C3856   1.403       .  A
C3856      H3860   1.084       .  S
C3857      H3867   1.111       .  S
C3857      H3868   1.110       .  S
C3857      H3869   1.108       .  S
C3859      H3870   1.111       .  S
C3859      H3871   1.110       .  S
C3859      H3872   1.107       .  S
