geometry optimzed in LAMMPS
_audit_creation_date              2020-11-30 
_audit_creation_method            'lammps2cif' 
_symmetry_space_group_name_H-M    'P1' 
_symmetry_Int_Tables_number       1 
_symmetry_cell_setting            triclinic 
loop_ 
_symmetry_equiv_pos_as_xyz 
  x,y,z 
_cell_length_a                    26.642059077373272 
_cell_length_b                    26.702305515298068 
_cell_length_c                    31.506082541566006 
_cell_angle_alpha                 89.61470702111198 
_cell_angle_beta                  90.12024621524554 
_cell_angle_gamma                 90.03259350906943 
loop_ 
_atom_site_label 
_atom_site_type_symbol 
_atom_site_fract_x 
_atom_site_fract_y 
_atom_site_fract_z 
_atom_site_charge 
O1          O  0.36813522  0.49153584  0.42282696    -0.74580
O2          O  0.35398198  0.06674817  0.45502606    -0.53490
C3          C  0.34090364  0.02955306  0.43112454     0.79150
O4          O  0.48378273  0.37738171  0.57926990    -0.59180
O5          O  0.05739094  0.36096983  0.54486780    -0.52210
C6          C  0.02091442  0.34923187  0.57024092     0.71160
O7          O  0.36672260  0.48845181  0.57500410    -0.73740
O8          O  0.35414737  0.06578387  0.54514010    -0.54310
C9          C  0.34031446  0.02745434  0.56780401     0.77160
O10         O  0.48379693  0.37954414  0.41937212    -0.58890
O11         O  0.05685485  0.36200042  0.45474859    -0.52010
C12         C  0.02055073  0.35090305  0.42895928     0.73760
Zr13       Zr  0.45026349  0.45963820  0.43677591     2.54710
O14         O  0.38684729  0.39481772  0.42823869    -0.79450
O15         O  0.45914262  0.47211114  0.36051597    -0.92870
Zr16       Zr  0.44887297  0.45710140  0.56145117     2.64680
O17         O  0.38316531  0.39367747  0.56617457    -0.97820
O18         O  0.45578111  0.46620379  0.63810465    -0.79880
O19         O  0.41483484  0.49255594  0.49908385    -0.83240
O20         O  0.48304523  0.42288210  0.49917089    -2.17950
O21         O  0.13130712  0.02392865  0.42045508    -0.66630
O22         O  0.14701107  0.45000452  0.45510520    -0.51200
C23         C  0.15910016  0.48640182  0.42963912     0.72140
O24         O  0.01972290  0.13873038  0.57886455    -0.59540
O25         O  0.44484288  0.15446750  0.54563848    -0.51520
C26         C  0.48204393  0.16652902  0.57020727     0.73940
O27         O  0.12976817  0.02137172  0.58228957    -0.70940
O28         O  0.14691319  0.44980189  0.54552243    -0.49610
C29         C  0.15830243  0.48494690  0.57213328     0.75320
O30         O  0.01953707  0.14107752  0.42257017    -0.66260
O31         O  0.44410620  0.15541386  0.45494677    -0.53460
C32         C  0.48138054  0.16825849  0.43076783     0.73710
Zr33       Zr  0.05196791  0.05975125  0.43849704     2.77540
O34         O  0.11605457  0.12491229  0.43569009    -0.97010
O35         O  0.04330053  0.05408767  0.36172604    -0.77830
Zr36       Zr  0.05075563  0.05715273  0.56319861     2.70070
O37         O  0.11759371  0.11908700  0.56758459    -0.79080
O38         O  0.04014888  0.05033523  0.63974826    -0.98170
Zr39       Zr  0.42902884  0.08061762  0.50013137     2.21500
Zr40       Zr  0.07193414  0.43613460  0.50004272     2.11130
O41         O  0.08644021  0.02454305  0.50084694    -2.46850
O42         O  0.01749402  0.09365215  0.50090547    -0.78870
O43         O  0.03799858  0.47237287  0.43609165    -0.71070
O44         O  0.46307763  0.04429414  0.56393469    -2.32030
O45         O  0.46429641  0.04688295  0.43625538    -2.28240
O46         O  0.03663727  0.46980319  0.56391404    -0.72830
H47         H  0.47503969  0.38763553  0.49897882     0.79170
H48         H  0.44812089  0.05875323  0.58893191     0.80250
H49         H  0.12190340  0.03192787  0.50118793     0.82480
H50         H  0.44968681  0.06231533  0.41130975     0.80090
H51         H  0.42578386  0.48568935  0.64636925     0.43120
H52         H  0.05466874  0.01733423  0.64732779     0.42090
H53         H  0.12159710  0.13144866  0.53808167     0.41770
H54         H  0.14288784  0.11347859  0.45526659     0.39700
H55         H  0.06031111  0.02241957  0.35418199     0.42840
H56         H  0.43230187  0.49613049  0.35273909     0.37620
H57         H  0.37779292  0.38511079  0.45763453     0.43740
H58         H  0.39325656  0.36706474  0.54618772     0.40150
H59         H  0.13092423  0.12244590  0.40699847     0.45070
H60         H  0.44811100  0.44000004  0.34801290     0.43790
H61         H  0.38688711  0.37841723  0.59474369     0.43930
H62         H  0.06416295  0.07496068  0.65150284     0.44290
C63         C  0.49553769  0.26045704  0.34157572     0.03840
C64         C  0.51349523  0.30228652  0.36354861    -0.12310
C65         C  0.01724203  0.30208744  0.40793783     0.01340
C66         C  0.00196618  0.25929214  0.43070643    -0.10840
C67         C  0.98314382  0.21717541  0.40926311     0.03830
C68         C  0.48052838  0.21797008  0.36471803    -0.10260
H69         H  0.52222057  0.33636800  0.34614683     0.09420
H70         H  0.00437525  0.25888621  0.46486451     0.06950
H71         H  0.46913824  0.18446014  0.34799920     0.06800
C72         C  0.24950351  0.01267357  0.34235946     0.03840
C73         C  0.29074785  0.03063687  0.36554232    -0.12310
C74         C  0.29172005  0.02745800  0.41003070     0.01340
C75         C  0.25022767  0.00687347  0.43148827    -0.10840
C76         C  0.20835247  0.98919609  0.40883295     0.03830
C77         C  0.20887459  0.99142159  0.36434555    -0.10260
H78         H  0.32307905  0.04568883  0.34896887     0.09420
H79         H  0.25037832  0.00502306  0.46563451     0.06950
H80         H  0.17617817  0.97871160  0.34693181     0.06800
C81         C  0.25048000  0.01350510  0.65779579     0.03840
C82         C  0.29154879  0.03008904  0.63375305    -0.12310
C83         C  0.29159693  0.02556974  0.58940144     0.01340
C84         C  0.24976862  0.00408927  0.56905663    -0.10840
C85         C  0.20788180  0.98811770  0.59262237     0.03830
C86         C  0.20903680  0.99238918  0.63698719    -0.10260
H87         H  0.32439394  0.04499292  0.64965921     0.09420
H88         H  0.24954799  0.00039871  0.53504759     0.06950
H89         H  0.17633039  0.98131469  0.65521295     0.06800
C90         C  0.49702332  0.25868179  0.65868503     0.03840
C91         C  0.48247334  0.21596316  0.63599495    -0.12310
C92         C  0.48443487  0.21531036  0.59141496     0.01340
C93         C  0.50279653  0.25754974  0.56947496    -0.10840
C94         C  0.51804144  0.30038658  0.59175092     0.03830
C95         C  0.51436798  0.30065259  0.63612345    -0.10260
H96         H  0.47163222  0.18227605  0.65304733     0.09420
H97         H  0.00484614  0.25719780  0.53531159     0.06950
H98         H  0.52250670  0.33499335  0.65298711     0.06800
C99         C  0.24196219  0.02307923  0.15841466     0.03840
C100        C  0.25722793  0.48159217  0.13465120    -0.12310
C101        C  0.25437347  0.48213374  0.09017884     0.01340
C102        C  0.23515666  0.02475250  0.06928457    -0.10840
C103        C  0.21979279  0.06679618  0.09257965     0.03830
C104        C  0.22358102  0.06556487  0.13706113    -0.10260
H105        H  0.26885157  0.44758418  0.15090261     0.09420
H106        H  0.23266679  0.02536500  0.03511482     0.06950
H107        H  0.21452413  0.09888478  0.15497663     0.06800
O108        O  0.21456510  0.40922501  0.92593011    -0.74580
O109        O  0.29262177  0.42154027  0.95453874    -0.53490
C110        C  0.25378759  0.43562279  0.93256660     0.79150
O111        O  0.10541052  0.28884876  0.07943378    -0.59180
O112        O  0.09006135  0.21527587  0.04487051    -0.52210
C113        C  0.07765709  0.25144564  0.06995468     0.71160
O114        O  0.21782556  0.40640048  0.07663347    -0.73740
O115        O  0.29360599  0.42096699  0.04472396    -0.54310
C116        C  0.25606097  0.43367508  0.06848580     0.77160
O117        O  0.10397910  0.29090761  0.92228103    -0.58890
O118        O  0.09024175  0.21548576  0.95528169    -0.52010
C119        C  0.07703362  0.25255785  0.93098629     0.73760
Zr120      Zr  0.18463956  0.32585841  0.93816614     2.54710
O121        O  0.11851091  0.38803159  0.92981121    -0.79450
O122        O  0.19589507  0.31873283  0.86176903    -0.92870
Zr123      Zr  0.18568587  0.32456227  0.06272717     2.64680
O124        O  0.12240317  0.39007642  0.06874899    -0.97820
O125        O  0.19561008  0.31586747  0.13927248    -0.79880
O126        O  0.21966394  0.35993387  0.00033194    -0.83240
O127        O  0.15036431  0.29098659  0.00055304    -2.17950
O128        O  0.24778278  0.14976872  0.91376455    -0.66630
O129        O  0.18145237  0.12772073  0.95583579    -0.51200
C130        C  0.21444007  0.11884557  0.92658830     0.72140
O131        O  0.36820857  0.25677348  0.07825345    -0.59540
O132        O  0.38341097  0.33169932  0.04506466    -0.51520
C133        C  0.39582480  0.29457826  0.06979082     0.73940
O134        O  0.25346480  0.14445192  0.08110819    -0.70940
O135        O  0.18015357  0.12773968  0.04599787    -0.49610
C136        C  0.21645874  0.11614248  0.07177831     0.75320
O137        O  0.36712956  0.25710632  0.92097186    -0.66260
O138        O  0.38294352  0.33145505  0.95410459    -0.53460
C139        C  0.39501210  0.29459063  0.92940821     0.73710
Zr140      Zr  0.28608526  0.22536845  0.93737741     2.77540
O141        O  0.34785922  0.15796368  0.93792543    -0.97010
O142        O  0.28588829  0.23617566  0.86057897    -0.77830
Zr143      Zr  0.28722245  0.22426536  0.06218594     2.70070
O144        O  0.35093994  0.15914282  0.06635051    -0.79080
O145        O  0.28079560  0.23394068  0.13876773    -0.98170
Zr146      Zr  0.30828443  0.34671442  0.99970228     2.21500
Zr147      Zr  0.16512240  0.20241279  0.00034417     2.11130
O148        O  0.25358832  0.18911618  0.99985954    -2.46850
O149        O  0.32191032  0.25863528  0.99962621    -0.78870
O150        O  0.19844478  0.23847043  0.93625653    -0.71070
O151        O  0.27342733  0.31150461  0.06364126    -2.32030
O152        O  0.27226918  0.31269285  0.93607828    -2.28240
O153        O  0.19962017  0.23712437  0.06423419    -0.72830
H154        H  0.11493431  0.29841645  0.00069268     0.79170
H155        H  0.28844946  0.32617841  0.08857930     0.80250
H156        H  0.26132577  0.15381545  0.99964971     0.82480
H157        H  0.28683356  0.32783995  0.91103305     0.80090
H158        H  0.21781661  0.34392801  0.14751689     0.43120
H159        H  0.24882867  0.21729699  0.14644979     0.42090
H160        H  0.36051723  0.15320645  0.03645374     0.41770
H161        H  0.33220107  0.12997385  0.95387487     0.39700
H162        H  0.25119658  0.22791021  0.85175009     0.42840
H163        H  0.21682954  0.34794643  0.85377562     0.37620
H164        H  0.10815406  0.39579197  0.95921079     0.43740
H165        H  0.09566433  0.38086240  0.04835832     0.40150
H166        H  0.34927892  0.14622370  0.90820472     0.45070
H167        H  0.16240340  0.32635319  0.84967673     0.43790
H168        H  0.10715798  0.38520905  0.09711949     0.43930
H169        H  0.30714616  0.21160536  0.15045504     0.44290
C170        C  0.48641215  0.26833553  0.15777505     0.03840
C171        C  0.02719404  0.24984057  0.13465630    -0.12310
C172        C  0.02830800  0.25334405  0.09037547     0.01340
C173        C  0.48702073  0.27424724  0.06871879    -0.10840
C174        C  0.44492962  0.29152016  0.09115462     0.03830
C175        C  0.44531120  0.28891856  0.13578067    -0.10260
H176        H  0.05958203  0.23478278  0.15126592     0.09420
H177        H  0.48751318  0.27671255  0.03460929     0.06950
H178        H  0.41265402  0.30136167  0.15324281     0.06800
C179        C  0.24340863  0.02573870  0.84143185     0.03840
C180        C  0.22533371  0.06850578  0.86200181    -0.12310
C181        C  0.21909473  0.06947370  0.90627149     0.01340
C182        C  0.23231483  0.02686467  0.93033327    -0.10840
C183        C  0.25231005  0.48423191  0.91040354     0.03830
C184        C  0.25693343  0.48385227  0.86603193    -0.10260
H185        H  0.21791218  0.10219405  0.84364522     0.09420
H186        H  0.22778047  0.02714267  0.96433583     0.06950
H187        H  0.26839288  0.44961926  0.85049486     0.06800
C188        C  0.48610229  0.26802192  0.84230208     0.03840
C189        C  0.02710012  0.25041964  0.86593860    -0.12310
C190        C  0.02785906  0.25407405  0.91017242     0.01340
C191        C  0.48630726  0.27477267  0.93121558    -0.10840
C192        C  0.44410074  0.29132958  0.90823787     0.03830
C193        C  0.44455534  0.28804775  0.86365657    -0.10260
H194        H  0.05986431  0.23600631  0.84971165     0.09420
H195        H  0.48667168  0.27763644  0.96527661     0.06950
H196        H  0.41174791  0.29966350  0.84572744     0.06800
C197        C  0.45144027  0.24195324  0.72748829     0.24300
C198        C  0.49405635  0.26015809  0.70584431    -0.23800
C199        C  0.03348502  0.28134198  0.72960155     0.19210
C200        C  0.03008307  0.28497037  0.77365666     0.24250
C201        C  0.48785928  0.26625780  0.79528863    -0.23750
C202        C  0.44855907  0.24466587  0.77181030     0.19150
F203        F  0.40778775  0.22526057  0.79182183    -0.13710
F204        F  0.41202498  0.22247133  0.70576054    -0.16070
F205        F  0.06802206  0.30746231  0.79520717    -0.16070
F206        F  0.07595630  0.29789360  0.71029536    -0.13710
C207        C  0.20905792  0.04104083  0.72493588     0.24300
C208        C  0.25020654  0.01871400  0.70463583    -0.23800
C209        C  0.29018440  0.50030062  0.72943474     0.19210
C210        C  0.28859653  0.50342037  0.77376912     0.24250
C211        C  0.24660902  0.02439702  0.79423676    -0.23750
C212        C  0.20698126  0.04337094  0.76916328     0.19150
F213        F  0.16524959  0.06282278  0.78739973    -0.13710
F214        F  0.17073097  0.06088448  0.70185145    -0.16070
F215        F  0.32839005  0.48626535  0.79659128    -0.16070
F216        F  0.33019723  0.47796563  0.71081148    -0.13710
C217        C  0.28810598  0.00450184  0.22647648     0.24300
C218        C  0.24458910  0.02170026  0.20554398    -0.23800
C219        C  0.20321559  0.03686490  0.22997986     0.19230
C220        C  0.20523274  0.03480446  0.27429042     0.24250
C221        C  0.24831766  0.01656992  0.29525612    -0.23750
C222        C  0.28981758  0.00158120  0.27082633     0.19150
F223        F  0.33167206  0.98284045  0.28977539    -0.13710
F224        F  0.32930893  0.99098097  0.20399979    -0.16070
F225        F  0.16508932  0.05129320  0.29670758    -0.16070
F226        F  0.16016473  0.05253654  0.21096387    -0.13710
C227        C  0.03373282  0.28002537  0.27075639     0.24300
C228        C  0.49292893  0.26157908  0.29446587    -0.23800
C229        C  0.44950508  0.24559109  0.27284697     0.19210
C230        C  0.44710652  0.24787673  0.22845301     0.24250
C231        C  0.48783232  0.26679472  0.20488149    -0.23750
C232        C  0.03095470  0.28323626  0.22660525     0.19150
F233        F  0.07037638  0.30324094  0.20509919    -0.13710
F234        F  0.07686243  0.29431494  0.29029323    -0.16070
F235        F  0.40535269  0.23063839  0.20852798    -0.16070
F236        F  0.40894889  0.22867509  0.29469008    -0.13710
O237        O  0.36813520  0.99153583  0.42282698    -0.74580
O238        O  0.35398198  0.56674817  0.45502605    -0.53490
C239        C  0.34090365  0.52955307  0.43112453     0.79150
O240        O  0.48378273  0.87738171  0.57926991    -0.59180
O241        O  0.05739093  0.86096983  0.54486781    -0.52210
C242        C  0.02091442  0.84923187  0.57024092     0.71160
O243        O  0.36672261  0.98845182  0.57500412    -0.73740
O244        O  0.35414737  0.56578386  0.54514010    -0.54310
C245        C  0.34031446  0.52745434  0.56780400     0.77160
O246        O  0.48379693  0.87954413  0.41937213    -0.58890
O247        O  0.05685485  0.86200042  0.45474860    -0.52010
C248        C  0.02055072  0.85090305  0.42895929     0.73760
Zr249      Zr  0.45026348  0.95963820  0.43677593     2.54710
O250        O  0.38684728  0.89481770  0.42823874    -0.79450
O251        O  0.45914259  0.97211111  0.36051598    -0.92870
Zr252      Zr  0.44887298  0.95710141  0.56145119     2.64680
O253        O  0.38316532  0.89367749  0.56617462    -0.97820
O254        O  0.45578114  0.96620381  0.63810467    -0.79880
O255        O  0.41483484  0.99255594  0.49908387    -0.83240
O256        O  0.48304523  0.92288210  0.49917091    -2.17950
O257        O  0.13130714  0.52392866  0.42045508    -0.66630
O258        O  0.14701106  0.95000452  0.45510521    -0.51200
C259        C  0.15910015  0.98640182  0.42963912     0.72140
O260        O  0.01972290  0.63873037  0.57886456    -0.59540
O261        O  0.44484288  0.65446750  0.54563848    -0.51520
C262        C  0.48204393  0.66652902  0.57020727     0.73940
O263        O  0.12976816  0.52137171  0.58228957    -0.70940
O264        O  0.14691319  0.94980190  0.54552244    -0.49610
C265        C  0.15830243  0.98494691  0.57213328     0.75320
O266        O  0.01953708  0.64107753  0.42257018    -0.66260
O267        O  0.44410620  0.65541386  0.45494677    -0.53460
C268        C  0.48138054  0.66825850  0.43076783     0.73710
Zr269      Zr  0.05196792  0.55975126  0.43849705     2.77540
O270        O  0.11605458  0.62491230  0.43569013    -0.97010
O271        O  0.04330056  0.55408771  0.36172604    -0.77830
Zr272      Zr  0.05075562  0.55715272  0.56319862     2.70070
O273        O  0.11759370  0.61908698  0.56758464    -0.79080
O274        O  0.04014885  0.55033518  0.63974827    -0.98170
Zr275      Zr  0.42902884  0.58061762  0.50013137     2.21500
Zr276      Zr  0.07193414  0.93613460  0.50004273     2.11130
O277        O  0.08644021  0.52454305  0.50084695    -2.46850
O278        O  0.01749402  0.59365215  0.50090548    -0.78870
O279        O  0.03799856  0.97237286  0.43609165    -0.71070
O280        O  0.46307762  0.54429413  0.56393469    -2.32030
O281        O  0.46429642  0.54688296  0.43625537    -2.28240
O282        O  0.03663728  0.96980320  0.56391405    -0.72830
H283        H  0.47503969  0.88763553  0.49897883     0.79170
H284        H  0.44812088  0.55875322  0.58893191     0.80250
H285        H  0.12190340  0.53192787  0.50118794     0.82480
H286        H  0.44968683  0.56231534  0.41130975     0.80090
H287        H  0.42578388  0.98568935  0.64636926     0.43120
H288        H  0.05466871  0.51733419  0.64732779     0.42090
H289        H  0.12159713  0.63144863  0.53808172     0.41770
H290        H  0.14288785  0.61347859  0.45526663     0.39700
H291        H  0.06031114  0.52241960  0.35418199     0.42840
H292        H  0.43230185  0.99613048  0.35273911     0.37620
H293        H  0.37779292  0.88511079  0.45763458     0.43740
H294        H  0.39325656  0.86706475  0.54618777     0.40150
H295        H  0.13092425  0.62244592  0.40699851     0.45070
H296        H  0.44811094  0.94000001  0.34801292     0.43790
H297        H  0.38688712  0.87841725  0.59474373     0.43930
H298        H  0.06416291  0.57496063  0.65150286     0.44290
C299        C  0.49553769  0.76045704  0.34157572     0.03840
C300        C  0.51349523  0.80228652  0.36354862    -0.12310
C301        C  0.01724204  0.80208744  0.40793784     0.01340
C302        C  0.00196619  0.75929214  0.43070643    -0.10840
C303        C  0.98314382  0.71717542  0.40926312     0.03830
C304        C  0.48052837  0.71797008  0.36471804    -0.10260
H305        H  0.52222057  0.83636800  0.34614684     0.09420
H306        H  0.00437526  0.75888621  0.46486452     0.06950
H307        H  0.46913824  0.68446015  0.34799921     0.06800
C308        C  0.24950351  0.51267355  0.34235946     0.03840
C309        C  0.29074785  0.53063686  0.36554231    -0.12310
C310        C  0.29172006  0.52745801  0.41003069     0.01340
C311        C  0.25022767  0.50687349  0.43148826    -0.10840
C312        C  0.20835247  0.48919610  0.40883295     0.03830
C313        C  0.20887460  0.49142158  0.36434554    -0.10260
H314        H  0.32307906  0.54568881  0.34896886     0.09420
H315        H  0.25037833  0.50502309  0.46563450     0.06950
H316        H  0.17617818  0.47871159  0.34693181     0.06800
C317        C  0.25048000  0.51350510  0.65779578     0.03840
C318        C  0.29154878  0.53008904  0.63375304    -0.12310
C319        C  0.29159692  0.52556973  0.58940143     0.01340
C320        C  0.24976862  0.50408926  0.56905662    -0.10840
C321        C  0.20788180  0.48811769  0.59262237     0.03830
C322        C  0.20903679  0.49238918  0.63698719    -0.10260
H323        H  0.32439393  0.54499293  0.64965920     0.09420
H324        H  0.24954799  0.50039869  0.53504759     0.06950
H325        H  0.17633039  0.48131469  0.65521295     0.06800
C326        C  0.49702331  0.75868178  0.65868503     0.03840
C327        C  0.48247334  0.71596315  0.63599495    -0.12310
C328        C  0.48443487  0.71531035  0.59141496     0.01340
C329        C  0.50279654  0.75754974  0.56947496    -0.10840
C330        C  0.51804143  0.80038657  0.59175092     0.03830
C331        C  0.51436797  0.80065259  0.63612346    -0.10260
H332        H  0.47163222  0.68227605  0.65304733     0.09420
H333        H  0.00484614  0.75719780  0.53531160     0.06950
H334        H  0.52250669  0.83499335  0.65298712     0.06800
C335        C  0.24196220  0.52307922  0.15841465     0.03840
C336        C  0.25722791  0.98159218  0.13465121    -0.12310
C337        C  0.25437346  0.98213374  0.09017885     0.01340
C338        C  0.23515667  0.52475250  0.06928456    -0.10840
C339        C  0.21979279  0.56679617  0.09257964     0.03830
C340        C  0.22358102  0.56556486  0.13706112    -0.10260
H341        H  0.26885155  0.94758418  0.15090263     0.09420
H342        H  0.23266680  0.52536500  0.03511481     0.06950
H343        H  0.21452413  0.59888477  0.15497662     0.06800
O344        O  0.21456510  0.90922501  0.92593012    -0.74580
O345        O  0.29262177  0.92154028  0.95453875    -0.53490
C346        C  0.25378759  0.93562280  0.93256662     0.79150
O347        O  0.10541052  0.78884874  0.07943379    -0.59180
O348        O  0.09006135  0.71527586  0.04487051    -0.52210
C349        C  0.07765709  0.75144562  0.06995469     0.71160
O350        O  0.21782555  0.90640047  0.07663349    -0.73740
O351        O  0.29360598  0.92096699  0.04472397    -0.54310
C352        C  0.25606096  0.93367507  0.06848582     0.77160
O353        O  0.10397909  0.79090762  0.92228103    -0.58890
O354        O  0.09024174  0.71548576  0.95528170    -0.52010
C355        C  0.07703362  0.75255785  0.93098630     0.73760
Zr356      Zr  0.18463955  0.82585841  0.93816615     2.54710
O357        O  0.11851090  0.88803160  0.92981124    -0.79450
O358        O  0.19589505  0.81873285  0.86176904    -0.92870
Zr359      Zr  0.18568586  0.82456226  0.06272718     2.64680
O360        O  0.12240315  0.89007640  0.06874900    -0.97820
O361        O  0.19561007  0.81586746  0.13927249    -0.79880
O362        O  0.21966393  0.85993387  0.00033195    -0.83240
O363        O  0.15036430  0.79098658  0.00055304    -2.17950
O364        O  0.24778282  0.64976868  0.91376459    -0.66630
O365        O  0.18145234  0.62772073  0.95583577    -0.51200
C366        C  0.21444008  0.61884556  0.92658830     0.72140
O367        O  0.36820856  0.75677347  0.07825345    -0.59540
O368        O  0.38341097  0.83169932  0.04506467    -0.51520
C369        C  0.39582480  0.79457826  0.06979083     0.73940
O370        O  0.25346479  0.64445192  0.08110819    -0.70940
O371        O  0.18015357  0.62773967  0.04599786    -0.49610
C372        C  0.21645874  0.61614247  0.07177831     0.75320
O373        O  0.36712955  0.75710634  0.92097185    -0.66260
O374        O  0.38294352  0.83145506  0.95410460    -0.53460
C375        C  0.39501209  0.79459065  0.92940821     0.73710
Zr376      Zr  0.28608526  0.72536846  0.93737741     2.77540
O377        O  0.34785927  0.65796373  0.93792541    -0.97010
O378        O  0.28588823  0.73617566  0.86057897    -0.77830
Zr379      Zr  0.28722244  0.72426535  0.06218594     2.70070
O380        O  0.35093993  0.65914281  0.06635049    -0.79080
O381        O  0.28079562  0.73394066  0.13876773    -0.98170
Zr382      Zr  0.30828442  0.84671443  0.99970229     2.21500
Zr383      Zr  0.16512239  0.70241279  0.00034417     2.11130
O384        O  0.25358832  0.68911618  0.99985954    -2.46850
O385        O  0.32191032  0.75863528  0.99962622    -0.78870
O386        O  0.19844478  0.73847044  0.93625653    -0.71070
O387        O  0.27342733  0.81150460  0.06364127    -2.32030
O388        O  0.27226918  0.81269286  0.93607829    -2.28240
O389        O  0.19962017  0.73712436  0.06423419    -0.72830
H390        H  0.11493430  0.79841644  0.00069269     0.79170
H391        H  0.28844946  0.82617840  0.08857931     0.80250
H392        H  0.26132577  0.65381545  0.99964970     0.82480
H393        H  0.28683356  0.82783996  0.91103306     0.80090
H394        H  0.21781661  0.84392800  0.14751690     0.43120
H395        H  0.24882868  0.71729700  0.14644979     0.42090
H396        H  0.36051724  0.65320647  0.03645371     0.41770
H397        H  0.33220115  0.62997390  0.95387489     0.39700
H398        H  0.25119652  0.72791017  0.85175011     0.42840
H399        H  0.21682954  0.84794644  0.85377564     0.37620
H400        H  0.10815407  0.89579198  0.95921082     0.43740
H401        H  0.09566432  0.88086238  0.04835834     0.40150
H402        H  0.34927893  0.64622372  0.90820471     0.45070
H403        H  0.16240338  0.82635323  0.84967674     0.43790
H404        H  0.10715797  0.88520903  0.09711950     0.43930
H405        H  0.30714616  0.71160532  0.15045504     0.44290
C406        C  0.48641214  0.76833552  0.15777506     0.03840
C407        C  0.02719403  0.74984055  0.13465631    -0.12310
C408        C  0.02830800  0.75334403  0.09037547     0.01340
C409        C  0.48702072  0.77424722  0.06871880    -0.10840
C410        C  0.44492961  0.79152015  0.09115462     0.03830
C411        C  0.44531119  0.78891856  0.13578068    -0.10260
H412        H  0.05958203  0.73478276  0.15126593     0.09420
H413        H  0.48751317  0.77671252  0.03460930     0.06950
H414        H  0.41265402  0.80136168  0.15324282     0.06800
C415        C  0.24340862  0.52573871  0.84143185     0.03840
C416        C  0.22533370  0.56850578  0.86200181    -0.12310
C417        C  0.21909472  0.56947369  0.90627149     0.01340
C418        C  0.23231483  0.52686466  0.93033326    -0.10840
C419        C  0.25231005  0.98423192  0.91040355     0.03830
C420        C  0.25693344  0.98385227  0.86603194    -0.10260
H421        H  0.21791217  0.60219405  0.84364522     0.09420
H422        H  0.22778048  0.52714265  0.96433582     0.06950
H423        H  0.26839289  0.94961926  0.85049488     0.06800
C424        C  0.48610228  0.76802192  0.84230209     0.03840
C425        C  0.02710011  0.75041964  0.86593860    -0.12310
C426        C  0.02785905  0.75407405  0.91017242     0.01340
C427        C  0.48630724  0.77477268  0.93121558    -0.10840
C428        C  0.44410073  0.79132959  0.90823788     0.03830
C429        C  0.44455533  0.78804776  0.86365657    -0.10260
H430        H  0.05986431  0.73600631  0.84971166     0.09420
H431        H  0.48667167  0.77763645  0.96527661     0.06950
H432        H  0.41174790  0.79966351  0.84572744     0.06800
C433        C  0.45144026  0.74195324  0.72748830     0.24300
C434        C  0.49405635  0.76015808  0.70584431    -0.23800
C435        C  0.03348501  0.78134197  0.72960156     0.19210
C436        C  0.03008305  0.78497036  0.77365667     0.24250
C437        C  0.48785927  0.76625780  0.79528863    -0.23750
C438        C  0.44855906  0.74466587  0.77181031     0.19150
F439        F  0.40778774  0.72526057  0.79182183    -0.13710
F440        F  0.41202497  0.72247133  0.70576055    -0.16070
F441        F  0.06802205  0.80746231  0.79520717    -0.16070
F442        F  0.07595629  0.79789360  0.71029537    -0.13710
C443        C  0.20905791  0.54104084  0.72493587     0.24300
C444        C  0.25020654  0.51871401  0.70463582    -0.23800
C445        C  0.29018440  0.00030060  0.72943474     0.19210
C446        C  0.28859654  0.00342036  0.77376912     0.24250
C447        C  0.24660901  0.52439703  0.79423675    -0.23750
C448        C  0.20698125  0.54337095  0.76916328     0.19150
F449        F  0.16524958  0.56282278  0.78739972    -0.13710
F450        F  0.17073096  0.56088448  0.70185144    -0.16070
F451        F  0.32839006  0.98626533  0.79659129    -0.16070
F452        F  0.33019723  0.97796561  0.71081148    -0.13710
C453        C  0.28810598  0.50450181  0.22647647     0.24300
C454        C  0.24458911  0.52170025  0.20554397    -0.23800
C455        C  0.20321559  0.53686489  0.22997986     0.19230
C456        C  0.20523274  0.53480444  0.27429042     0.24250
C457        C  0.24831766  0.51656990  0.29525611    -0.23750
C458        C  0.28981758  0.50158117  0.27082632     0.19150
F459        F  0.33167206  0.48284042  0.28977538    -0.13710
F460        F  0.32930893  0.49098095  0.20399979    -0.16070
F461        F  0.16508932  0.55129318  0.29670757    -0.16070
F462        F  0.16016474  0.55253652  0.21096386    -0.13710
C463        C  0.03373281  0.78002537  0.27075639     0.24300
C464        C  0.49292893  0.76157908  0.29446588    -0.23800
C465        C  0.44950507  0.74559110  0.27284698     0.19210
C466        C  0.44710651  0.74787673  0.22845302     0.24250
C467        C  0.48783231  0.76679471  0.20488150    -0.23750
C468        C  0.03095469  0.78323626  0.22660525     0.19150
F469        F  0.07037637  0.80324093  0.20509919    -0.13710
F470        F  0.07686242  0.79431495  0.29029324    -0.16070
F471        F  0.40535268  0.73063841  0.20852799    -0.16070
F472        F  0.40894888  0.72867512  0.29469010    -0.13710
O473        O  0.86813522  0.49153582  0.42282699    -0.74580
O474        O  0.85398201  0.06674815  0.45502609    -0.53490
C475        C  0.84090365  0.02955305  0.43112457     0.79150
O476        O  0.98378280  0.37738167  0.57926990    -0.59180
O477        O  0.55739087  0.36096987  0.54486781    -0.52210
C478        C  0.52091434  0.34923191  0.57024092     0.71160
O479        O  0.86672266  0.48845178  0.57500415    -0.73740
O480        O  0.85414741  0.06578382  0.54514013    -0.54310
C481        C  0.84031451  0.02745431  0.56780406     0.77160
O482        O  0.98379692  0.37954409  0.41937212    -0.58890
O483        O  0.55685484  0.36200046  0.45474860    -0.52010
C484        C  0.52055073  0.35090309  0.42895929     0.73760
Zr485      Zr  0.95026349  0.45963817  0.43677593     2.54710
O486        O  0.88684729  0.39481769  0.42823871    -0.79450
O487        O  0.95914261  0.47211110  0.36051598    -0.92870
Zr488      Zr  0.94887302  0.45710135  0.56145119     2.64680
O489        O  0.88316537  0.39367742  0.56617459    -0.97820
O490        O  0.95578119  0.46620372  0.63810467    -0.79880
O491        O  0.91483487  0.49255590  0.49908388    -0.83240
O492        O  0.98304525  0.42288206  0.49917090    -2.17950
O493        O  0.63130712  0.02392870  0.42045510    -0.66630
O494        O  0.64701105  0.45000457  0.45510523    -0.51200
C495        C  0.65910015  0.48640187  0.42963915     0.72140
O496        O  0.51972280  0.13873040  0.57886457    -0.59540
O497        O  0.94484295  0.15446745  0.54563851    -0.51520
C498        C  0.98204402  0.16652898  0.57020728     0.73940
O499        O  0.62976820  0.02137185  0.58228949    -0.70940
O500        O  0.64691316  0.44980193  0.54552246    -0.49610
C501        C  0.65830243  0.48494698  0.57213325     0.75320
O502        O  0.51953707  0.14107757  0.42257018    -0.66260
O503        O  0.94410622  0.15541382  0.45494679    -0.53460
C504        C  0.98138055  0.16825844  0.43076783     0.73710
Zr505      Zr  0.55196789  0.05975130  0.43849705     2.77540
O506        O  0.61605455  0.12491234  0.43569012    -0.97010
O507        O  0.54330053  0.05408773  0.36172605    -0.77830
Zr508      Zr  0.55075557  0.05715277  0.56319863     2.70070
O509        O  0.61759353  0.11908714  0.56758487    -0.79080
O510        O  0.54014876  0.05033500  0.63974826    -0.98170
Zr511      Zr  0.92902888  0.08061758  0.50013140     2.21500
Zr512      Zr  0.57193411  0.43613465  0.50004273     2.11130
O513        O  0.58644017  0.02454310  0.50084696    -2.46850
O514        O  0.51749399  0.09365219  0.50090548    -0.78870
O515        O  0.53799857  0.47237291  0.43609165    -0.71070
O516        O  0.96307769  0.04429410  0.56393471    -2.32030
O517        O  0.96429642  0.04688291  0.43625539    -2.28240
O518        O  0.53663722  0.46980323  0.56391405    -0.72830
H519        H  0.97503972  0.38763548  0.49897882     0.79170
H520        H  0.94812097  0.05875319  0.58893193     0.80250
H521        H  0.62190336  0.03192793  0.50118795     0.82480
H522        H  0.94968682  0.06231528  0.41130977     0.80090
H523        H  0.92578396  0.48568930  0.64636927     0.43120
H524        H  0.55466886  0.01733410  0.64732775     0.42090
H525        H  0.62159724  0.13144861  0.53808192     0.41770
H526        H  0.64288780  0.11347865  0.45526665     0.39700
H527        H  0.56031111  0.02241962  0.35418200     0.42840
H528        H  0.93230188  0.49613047  0.35273912     0.37620
H529        H  0.87779292  0.38511076  0.45763455     0.43740
H530        H  0.89325662  0.36706469  0.54618774     0.40150
H531        H  0.63092424  0.12244594  0.40699852     0.45070
H532        H  0.94811096  0.44000001  0.34801292     0.43790
H533        H  0.88688717  0.37841717  0.59474370     0.43930
H534        H  0.56416262  0.07496061  0.65150291     0.44290
C535        C  0.99553769  0.26045698  0.34157572     0.03840
C536        C  0.01349522  0.30228647  0.36354861    -0.12310
C537        C  0.51724204  0.30208748  0.40793783     0.01340
C538        C  0.50196619  0.25929218  0.43070642    -0.10840
C539        C  0.48314381  0.21717546  0.40926311     0.03830
C540        C  0.98052838  0.21797002  0.36471803    -0.10260
H541        H  0.02222055  0.33636795  0.34614683     0.09420
H542        H  0.50437526  0.25888625  0.46486451     0.06950
H543        H  0.96913826  0.18446008  0.34799920     0.06800
C544        C  0.74950351  0.01267360  0.34235949     0.03840
C545        C  0.79074786  0.03063688  0.36554234    -0.12310
C546        C  0.79172007  0.02745801  0.41003073     0.01340
C547        C  0.75022767  0.00687350  0.43148829    -0.10840
C548        C  0.70835246  0.98919614  0.40883297     0.03830
C549        C  0.70887459  0.99142164  0.36434557    -0.10260
H550        H  0.82307907  0.04568882  0.34896890     0.09420
H551        H  0.75037833  0.00502308  0.46563453     0.06950
H552        H  0.67617816  0.97871167  0.34693184     0.06800
C553        C  0.75047999  0.01350504  0.65779580     0.03840
C554        C  0.79154882  0.03008895  0.63375309    -0.12310
C555        C  0.79159697  0.02556971  0.58940148     0.01340
C556        C  0.74976865  0.00408932  0.56905663    -0.10840
C557        C  0.70788179  0.98811776  0.59262235     0.03830
C558        C  0.70903677  0.99238919  0.63698718    -0.10260
H559        H  0.82439397  0.04499279  0.64965928     0.09420
H560        H  0.74954802  0.00039880  0.53504760     0.06950
H561        H  0.67633035  0.98131471  0.65521291     0.06800
C562        C  0.99702340  0.25868176  0.65868503     0.03840
C563        C  0.98247343  0.21596312  0.63599496    -0.12310
C564        C  0.98443497  0.21531032  0.59141497     0.01340
C565        C  0.00279664  0.25754970  0.56947496    -0.10840
C566        C  0.01804152  0.30038654  0.59175092     0.03830
C567        C  0.01436805  0.30065256  0.63612345    -0.10260
H568        H  0.97163230  0.18227602  0.65304734     0.09420
H569        H  0.50484602  0.25719785  0.53531158     0.06950
H570        H  0.02250676  0.33499333  0.65298712     0.06800
C571        C  0.74196220  0.02307923  0.15841468     0.03840
C572        C  0.75722793  0.48159218  0.13465123    -0.12310
C573        C  0.75437346  0.48213374  0.09017887     0.01340
C574        C  0.73515667  0.02475249  0.06928459    -0.10840
C575        C  0.71979280  0.06679618  0.09257966     0.03830
C576        C  0.72358104  0.06556487  0.13706114    -0.10260
H577        H  0.76885158  0.44758418  0.15090264     0.09420
H578        H  0.73266680  0.02536498  0.03511484     0.06950
H579        H  0.71452416  0.09888479  0.15497664     0.06800
O580        O  0.71456510  0.40922502  0.92593014    -0.74580
O581        O  0.79262177  0.42154028  0.95453876    -0.53490
C582        C  0.75378759  0.43562280  0.93256663     0.79150
O583        O  0.60541052  0.28884876  0.07943379    -0.59180
O584        O  0.59006136  0.21527587  0.04487052    -0.52210
C585        C  0.57765709  0.25144563  0.06995468     0.71160
O586        O  0.71782555  0.40640048  0.07663349    -0.73740
O587        O  0.79360599  0.42096699  0.04472399    -0.54310
C588        C  0.75606096  0.43367508  0.06848583     0.77160
O589        O  0.60397912  0.29090760  0.92228102    -0.58890
O590        O  0.59024175  0.21548576  0.95528170    -0.52010
C591        C  0.57703364  0.25255785  0.93098629     0.73760
Zr592      Zr  0.68463957  0.32585841  0.93816615     2.54710
O593        O  0.61851091  0.38803158  0.92981122    -0.79450
O594        O  0.69589509  0.31873285  0.86176904    -0.92870
Zr595      Zr  0.68568586  0.32456227  0.06272718     2.64680
O596        O  0.62240316  0.39007641  0.06874899    -0.97820
O597        O  0.69561007  0.31586747  0.13927249    -0.79880
O598        O  0.71966394  0.35993387  0.00033195    -0.83240
O599        O  0.65036431  0.29098658  0.00055304    -2.17950
O600        O  0.74778291  0.14976862  0.91376466    -0.66630
O601        O  0.68145233  0.12772074  0.95583575    -0.51200
C602        C  0.71444010  0.11884554  0.92658833     0.72140
O603        O  0.86820857  0.25677349  0.07825346    -0.59540
O604        O  0.88341098  0.33169933  0.04506468    -0.51520
C605        C  0.89582480  0.29457827  0.06979084     0.73940
O606        O  0.75346480  0.14445192  0.08110821    -0.70940
O607        O  0.68015359  0.12773968  0.04599787    -0.49610
C608        C  0.71645876  0.11614247  0.07177832     0.75320
O609        O  0.86712955  0.25710636  0.92097185    -0.66260
O610        O  0.88294353  0.33145507  0.95410461    -0.53460
C611        C  0.89501210  0.29459067  0.92940821     0.73710
Zr612      Zr  0.78608528  0.22536846  0.93737743     2.77540
O613        O  0.84785935  0.15796378  0.93792542    -0.97010
O614        O  0.78588818  0.23617565  0.86057898    -0.77830
Zr615      Zr  0.78722245  0.22426536  0.06218595     2.70070
O616        O  0.85093994  0.15914283  0.06635053    -0.79080
O617        O  0.78079560  0.23394070  0.13876775    -0.98170
Zr618      Zr  0.80828443  0.34671443  0.99970230     2.21500
Zr619      Zr  0.66512240  0.20241279  0.00034417     2.11130
O620        O  0.75358833  0.18911618  0.99985955    -2.46850
O621        O  0.82191033  0.25863529  0.99962623    -0.78870
O622        O  0.69844480  0.23847044  0.93625654    -0.71070
O623        O  0.77342733  0.31150461  0.06364128    -2.32030
O624        O  0.77226920  0.31269286  0.93607830    -2.28240
O625        O  0.69962017  0.23712437  0.06423420    -0.72830
H626        H  0.61493431  0.29841644  0.00069268     0.79170
H627        H  0.78844946  0.32617842  0.08857932     0.80250
H628        H  0.76132579  0.15381546  0.99964972     0.82480
H629        H  0.78683358  0.32783996  0.91103307     0.80090
H630        H  0.71781659  0.34392802  0.14751690     0.43120
H631        H  0.74882868  0.21729700  0.14644980     0.42090
H632        H  0.86051727  0.15320649  0.03645376     0.41770
H633        H  0.83220128  0.12997397  0.95387495     0.39700
H634        H  0.75119648  0.22791008  0.85175014     0.42840
H635        H  0.71682956  0.34794646  0.85377564     0.37620
H636        H  0.60815406  0.39579196  0.95921080     0.43740
H637        H  0.59566433  0.38086239  0.04835833     0.40150
H638        H  0.84927897  0.14622373  0.90820473     0.45070
H639        H  0.66240342  0.32635320  0.84967674     0.43790
H640        H  0.60715798  0.38520905  0.09711950     0.43930
H641        H  0.80714616  0.21160538  0.15045506     0.44290
C642        C  0.98641215  0.26833550  0.15777506     0.03840
C643        C  0.52719403  0.24984059  0.13465630    -0.12310
C644        C  0.52830800  0.25334405  0.09037547     0.01340
C645        C  0.98702073  0.27424725  0.06871880    -0.10840
C646        C  0.94492962  0.29152016  0.09115463     0.03830
C647        C  0.94531120  0.28891855  0.13578068    -0.10260
H648        H  0.55958202  0.23478280  0.15126593     0.09420
H649        H  0.98751318  0.27671258  0.03460930     0.06950
H650        H  0.91265403  0.30136165  0.15324283     0.06800
C651        C  0.74340860  0.02573867  0.84143188     0.03840
C652        C  0.72533369  0.06850575  0.86200183    -0.12310
C653        C  0.71909472  0.06947367  0.90627152     0.01340
C654        C  0.73231483  0.02686464  0.93033329    -0.10840
C655        C  0.75231005  0.48423192  0.91040356     0.03830
C656        C  0.75693343  0.48385226  0.86603196    -0.10260
H657        H  0.71791216  0.10219402  0.84364524     0.09420
H658        H  0.72778050  0.02714264  0.96433585     0.06950
H659        H  0.76839288  0.44961924  0.85049490     0.06800
C660        C  0.98610229  0.26802194  0.84230208     0.03840
C661        C  0.52710013  0.25041963  0.86593859    -0.12310
C662        C  0.52785907  0.25407405  0.91017242     0.01340
C663        C  0.98630725  0.27477269  0.93121558    -0.10840
C664        C  0.94410074  0.29132961  0.90823787     0.03830
C665        C  0.94455534  0.28804778  0.86365657    -0.10260
H666        H  0.55986432  0.23600631  0.84971165     0.09420
H667        H  0.98667168  0.27763646  0.96527661     0.06950
H668        H  0.91174791  0.29966353  0.84572744     0.06800
C669        C  0.95144032  0.24195323  0.72748829     0.24300
C670        C  0.99405641  0.26015808  0.70584431    -0.23800
C671        C  0.53348498  0.28134197  0.72960154     0.19210
C672        C  0.53008305  0.28497034  0.77365665     0.24250
C673        C  0.98785929  0.26625783  0.79528863    -0.23750
C674        C  0.94855909  0.24466588  0.77181030     0.19150
F675        F  0.90778777  0.22526058  0.79182181    -0.13710
F676        F  0.91202504  0.22247131  0.70576053    -0.16070
F677        F  0.56802206  0.30746227  0.79520715    -0.16070
F678        F  0.57595625  0.29789359  0.71029534    -0.13710
C679        C  0.70905788  0.04104075  0.72493590     0.24300
C680        C  0.75020651  0.01871391  0.70463585    -0.23800
C681        C  0.79018437  0.50030053  0.72943476     0.19210
C682        C  0.78859652  0.50342030  0.77376914     0.24250
C683        C  0.74660898  0.02439697  0.79423678    -0.23750
C684        C  0.70698122  0.04337087  0.76916330     0.19150
F685        F  0.66524956  0.06282272  0.78739974    -0.13710
F686        F  0.67073094  0.06088440  0.70185146    -0.16070
F687        F  0.82839004  0.48626529  0.79659130    -0.16070
F688        F  0.83019720  0.47796552  0.71081150    -0.13710
C689        C  0.78810598  0.00450183  0.22647650     0.24300
C690        C  0.74458911  0.02170027  0.20554400    -0.23800
C691        C  0.70321560  0.03686494  0.22997988     0.19230
C692        C  0.70523275  0.03480450  0.27429045     0.24250
C693        C  0.74831767  0.01656995  0.29525614    -0.23750
C694        C  0.78981758  0.00158120  0.27082635     0.19150
F695        F  0.83167206  0.98284044  0.28977541    -0.13710
F696        F  0.82930892  0.99098095  0.20399982    -0.16070
F697        F  0.66508934  0.05129326  0.29670760    -0.16070
F698        F  0.66016475  0.05253658  0.21096389    -0.13710
C699        C  0.53373281  0.28002542  0.27075639     0.24300
C700        C  0.99292894  0.26157902  0.29446587    -0.23800
C701        C  0.94950509  0.24559103  0.27284697     0.19210
C702        C  0.94710653  0.24787668  0.22845301     0.24250
C703        C  0.98783232  0.26679467  0.20488150    -0.23750
C704        C  0.53095469  0.28323631  0.22660524     0.19150
F705        F  0.57037637  0.30324098  0.20509918    -0.13710
F706        F  0.57686242  0.29431500  0.29029323    -0.16070
F707        F  0.90535270  0.23063834  0.20852797    -0.16070
F708        F  0.90894890  0.22867503  0.29469008    -0.13710
O709        O  0.86813521  0.99153581  0.42282700    -0.74580
O710        O  0.85398201  0.56674815  0.45502609    -0.53490
C711        C  0.84090366  0.52955305  0.43112456     0.79150
O712        O  0.98378281  0.87738167  0.57926992    -0.59180
O713        O  0.55739087  0.86096987  0.54486782    -0.52210
C714        C  0.52091434  0.84923191  0.57024092     0.71160
O715        O  0.86672267  0.98845179  0.57500418    -0.73740
O716        O  0.85414741  0.56578382  0.54514012    -0.54310
C717        C  0.84031451  0.52745430  0.56780404     0.77160
O718        O  0.98379692  0.87954409  0.41937214    -0.58890
O719        O  0.55685484  0.86200047  0.45474861    -0.52010
C720        C  0.52055073  0.85090309  0.42895929     0.73760
Zr721      Zr  0.95026348  0.95963815  0.43677595     2.54710
O722        O  0.88684727  0.89481767  0.42823879    -0.79450
O723        O  0.95914257  0.97211106  0.36051600    -0.92870
Zr724      Zr  0.94887303  0.95710136  0.56145121     2.64680
O725        O  0.88316538  0.89367744  0.56617466    -0.97820
O726        O  0.95578124  0.96620376  0.63810468    -0.79880
O727        O  0.91483487  0.99255590  0.49908390    -0.83240
O728        O  0.98304525  0.92288206  0.49917092    -2.17950
O729        O  0.63130713  0.52392871  0.42045511    -0.66630
O730        O  0.64701105  0.95000458  0.45510523    -0.51200
C731        C  0.65910014  0.98640187  0.42963914     0.72140
O732        O  0.51972279  0.63873040  0.57886457    -0.59540
O733        O  0.94484296  0.65446745  0.54563851    -0.51520
C734        C  0.98204403  0.66652898  0.57020728     0.73940
O735        O  0.62976819  0.52137183  0.58228949    -0.70940
O736        O  0.64691316  0.94980193  0.54552246    -0.49610
C737        C  0.65830243  0.98494699  0.57213325     0.75320
O738        O  0.51953707  0.64107758  0.42257019    -0.66260
O739        O  0.94410622  0.65541382  0.45494679    -0.53460
C740        C  0.98138055  0.66825845  0.43076784     0.73710
Zr741      Zr  0.55196790  0.55975131  0.43849706     2.77540
O742        O  0.61605456  0.62491235  0.43569015    -0.97010
O743        O  0.54330056  0.55408775  0.36172605    -0.77830
Zr744      Zr  0.55075556  0.55715276  0.56319864     2.70070
O745        O  0.61759353  0.61908712  0.56758489    -0.79080
O746        O  0.54014873  0.55033498  0.63974827    -0.98170
Zr747      Zr  0.92902888  0.58061758  0.50013140     2.21500
Zr748      Zr  0.57193411  0.93613465  0.50004274     2.11130
O749        O  0.58644017  0.52454310  0.50084697    -2.46850
O750        O  0.51749399  0.59365219  0.50090549    -0.78870
O751        O  0.53799856  0.97237291  0.43609166    -0.71070
O752        O  0.96307768  0.54429409  0.56393470    -2.32030
O753        O  0.96429643  0.54688292  0.43625539    -2.28240
O754        O  0.53663723  0.96980324  0.56391405    -0.72830
H755        H  0.97503972  0.88763548  0.49897885     0.79170
H756        H  0.94812095  0.55875318  0.58893192     0.80250
H757        H  0.62190336  0.53192793  0.50118795     0.82480
H758        H  0.94968684  0.56231530  0.41130976     0.80090
H759        H  0.92578399  0.98568930  0.64636930     0.43120
H760        H  0.55466883  0.51733408  0.64732775     0.42090
H761        H  0.62159725  0.63144859  0.53808194     0.41770
H762        H  0.64288781  0.61347866  0.45526668     0.39700
H763        H  0.56031114  0.52241965  0.35418200     0.42840
H764        H  0.93230186  0.99613046  0.35273914     0.37620
H765        H  0.87779291  0.88511077  0.45763463     0.43740
H766        H  0.89325661  0.86706470  0.54618780     0.40150
H767        H  0.63092425  0.62244596  0.40699854     0.45070
H768        H  0.94811087  0.93999998  0.34801294     0.43790
H769        H  0.88688720  0.87841720  0.59474377     0.43930
H770        H  0.56416260  0.57496058  0.65150292     0.44290
C771        C  0.99553769  0.76045699  0.34157572     0.03840
C772        C  0.01349522  0.80228647  0.36354862    -0.12310
C773        C  0.51724205  0.80208748  0.40793784     0.01340
C774        C  0.50196619  0.75929218  0.43070643    -0.10840
C775        C  0.48314381  0.71717547  0.40926311     0.03830
C776        C  0.98052838  0.71797003  0.36471804    -0.10260
H777        H  0.02222055  0.83636795  0.34614684     0.09420
H778        H  0.50437527  0.75888625  0.46486452     0.06950
H779        H  0.96913825  0.68446009  0.34799921     0.06800
C780        C  0.74950352  0.51267357  0.34235949     0.03840
C781        C  0.79074787  0.53063686  0.36554234    -0.12310
C782        C  0.79172007  0.52745801  0.41003072     0.01340
C783        C  0.75022768  0.50687351  0.43148830    -0.10840
C784        C  0.70835247  0.48919614  0.40883298     0.03830
C785        C  0.70887460  0.49142162  0.36434558    -0.10260
H786        H  0.82307908  0.54568880  0.34896889     0.09420
H787        H  0.75037833  0.50502311  0.46563453     0.06950
H788        H  0.67617817  0.47871164  0.34693185     0.06800
C789        C  0.75048000  0.51350505  0.65779579     0.03840
C790        C  0.79154881  0.53008896  0.63375307    -0.12310
C791        C  0.79159697  0.52556970  0.58940147     0.01340
C792        C  0.74976864  0.50408930  0.56905662    -0.10840
C793        C  0.70788179  0.48811775  0.59262235     0.03830
C794        C  0.70903678  0.49238919  0.63698717    -0.10260
H795        H  0.82439397  0.54499280  0.64965926     0.09420
H796        H  0.74954802  0.50039878  0.53504759     0.06950
H797        H  0.67633035  0.48131472  0.65521291     0.06800
C798        C  0.99702339  0.75868176  0.65868504     0.03840
C799        C  0.98247343  0.71596312  0.63599496    -0.12310
C800        C  0.98443497  0.71531032  0.59141497     0.01340
C801        C  0.00279664  0.75754969  0.56947497    -0.10840
C802        C  0.01804152  0.80038654  0.59175093     0.03830
C803        C  0.01436805  0.80065256  0.63612346    -0.10260
H804        H  0.97163231  0.68227601  0.65304734     0.09420
H805        H  0.50484603  0.75719785  0.53531159     0.06950
H806        H  0.02250675  0.83499332  0.65298712     0.06800
C807        C  0.74196221  0.52307922  0.15841468     0.03840
C808        C  0.75722791  0.98159217  0.13465124    -0.12310
C809        C  0.75437346  0.98213373  0.09017887     0.01340
C810        C  0.73515665  0.52475249  0.06928459    -0.10840
C811        C  0.71979277  0.56679617  0.09257967     0.03830
C812        C  0.72358102  0.56556486  0.13706116    -0.10260
H813        H  0.76885154  0.94758418  0.15090265     0.09420
H814        H  0.73266676  0.52536500  0.03511485     0.06950
H815        H  0.71452414  0.59888477  0.15497666     0.06800
O816        O  0.71456509  0.90922500  0.92593015    -0.74580
O817        O  0.79262177  0.92154026  0.95453877    -0.53490
C818        C  0.75378758  0.93562278  0.93256664     0.79150
O819        O  0.60541052  0.78884873  0.07943380    -0.59180
O820        O  0.59006134  0.71527585  0.04487052    -0.52210
C821        C  0.57765708  0.75144561  0.06995469     0.71160
O822        O  0.71782555  0.90640046  0.07663351    -0.73740
O823        O  0.79360597  0.92096698  0.04472399    -0.54310
C824        C  0.75606095  0.93367506  0.06848584     0.77160
O825        O  0.60397910  0.79090760  0.92228104    -0.58890
O826        O  0.59024174  0.71548575  0.95528170    -0.52010
C827        C  0.57703362  0.75255784  0.93098630     0.73760
Zr828      Zr  0.68463955  0.82585840  0.93816616     2.54710
O829        O  0.61851089  0.88803158  0.92981124    -0.79450
O830        O  0.69589507  0.81873284  0.86176906    -0.92870
Zr831      Zr  0.68568586  0.82456225  0.06272720     2.64680
O832        O  0.62240315  0.89007639  0.06874901    -0.97820
O833        O  0.69561007  0.81586744  0.13927250    -0.79880
O834        O  0.71966393  0.85993385  0.00033197    -0.83240
O835        O  0.65036430  0.79098657  0.00055306    -2.17950
O836        O  0.74778277  0.64976871  0.91376455    -0.66630
O837        O  0.68145236  0.62772072  0.95583579    -0.51200
C838        C  0.71444006  0.61884557  0.92658829     0.72140
O839        O  0.86820857  0.75677345  0.07825345    -0.59540
O840        O  0.88341097  0.83169930  0.04506469    -0.51520
C841        C  0.89582480  0.79457823  0.06979084     0.73940
O842        O  0.75346477  0.64445192  0.08110823    -0.70940
O843        O  0.68015356  0.62773967  0.04599788    -0.49610
C844        C  0.71645872  0.61614247  0.07177834     0.75320
O845        O  0.86712954  0.75710633  0.92097185    -0.66260
O846        O  0.88294351  0.83145505  0.95410461    -0.53460
C847        C  0.89501208  0.79459064  0.92940821     0.73710
Zr848      Zr  0.78608525  0.72536845  0.93737743     2.77540
O849        O  0.84785922  0.65796368  0.93792545    -0.97010
O850        O  0.78588828  0.73617565  0.86057898    -0.77830
Zr851      Zr  0.78722244  0.72426533  0.06218595     2.70070
O852        O  0.85093991  0.65914276  0.06635042    -0.79080
O853        O  0.78079570  0.73394063  0.13876775    -0.98170
Zr854      Zr  0.80828442  0.84671441  0.99970231     2.21500
Zr855      Zr  0.66512239  0.70241278  0.00034418     2.11130
O856        O  0.75358831  0.68911616  0.99985955    -2.46850
O857        O  0.82191032  0.75863526  0.99962623    -0.78870
O858        O  0.69844477  0.73847043  0.93625654    -0.71070
O859        O  0.77342732  0.81150458  0.06364129    -2.32030
O860        O  0.77226917  0.81269284  0.93607830    -2.28240
O861        O  0.69962017  0.73712435  0.06423420    -0.72830
H862        H  0.61493430  0.79841643  0.00069270     0.79170
H863        H  0.78844945  0.82617838  0.08857932     0.80250
H864        H  0.76132576  0.65381544  0.99964972     0.82480
H865        H  0.78683355  0.82783994  0.91103308     0.80090
H866        H  0.71781661  0.84392797  0.14751692     0.43120
H867        H  0.74882872  0.71729704  0.14644982     0.42090
H868        H  0.86051728  0.65320653  0.03645364     0.41770
H869        H  0.83220106  0.62997384  0.95387488     0.39700
H870        H  0.75119656  0.72791022  0.85175011     0.42840
H871        H  0.71682954  0.84794645  0.85377566     0.37620
H872        H  0.60815405  0.89579196  0.95921082     0.43740
H873        H  0.59566432  0.88086237  0.04835835     0.40150
H874        H  0.84927894  0.64622371  0.90820474     0.45070
H875        H  0.66240340  0.82635321  0.84967675     0.43790
H876        H  0.60715797  0.88520902  0.09711951     0.43930
H877        H  0.80714619  0.71160521  0.15045504     0.44290
C878        C  0.98641215  0.76833548  0.15777506     0.03840
C879        C  0.52719402  0.74984057  0.13465631    -0.12310
C880        C  0.52830799  0.75334403  0.09037548     0.01340
C881        C  0.98702073  0.77424722  0.06871880    -0.10840
C882        C  0.94492962  0.79152013  0.09115463     0.03830
C883        C  0.94531119  0.78891852  0.13578068    -0.10260
H884        H  0.55958201  0.73478278  0.15126594     0.09420
H885        H  0.98751318  0.77671253  0.03460930     0.06950
H886        H  0.91265402  0.80136163  0.15324283     0.06800
C887        C  0.74340861  0.52573868  0.84143186     0.03840
C888        C  0.72533370  0.56850577  0.86200181    -0.12310
C889        C  0.71909472  0.56947369  0.90627149     0.01340
C890        C  0.73231483  0.52686467  0.93033327    -0.10840
C891        C  0.75231005  0.98423189  0.91040357     0.03830
C892        C  0.75693341  0.98385224  0.86603196    -0.10260
H893        H  0.71791216  0.60219403  0.84364521     0.09420
H894        H  0.72778048  0.52714268  0.96433583     0.06950
H895        H  0.76839285  0.94961922  0.85049490     0.06800
C896        C  0.98610228  0.76802193  0.84230209     0.03840
C897        C  0.52710012  0.75041962  0.86593860    -0.12310
C898        C  0.52785906  0.75407404  0.91017242     0.01340
C899        C  0.98630724  0.77477268  0.93121558    -0.10840
C900        C  0.94410072  0.79132958  0.90823788     0.03830
C901        C  0.94455532  0.78804775  0.86365657    -0.10260
H902        H  0.55986430  0.73600630  0.84971166     0.09420
H903        H  0.98667167  0.77763645  0.96527661     0.06950
H904        H  0.91174789  0.79966350  0.84572744     0.06800
C905        C  0.95144031  0.74195322  0.72748829     0.24300
C906        C  0.99405640  0.76015807  0.70584431    -0.23800
C907        C  0.53348497  0.78134197  0.72960154     0.19210
C908        C  0.53008304  0.78497034  0.77365666     0.24250
C909        C  0.98785928  0.76625781  0.79528863    -0.23750
C910        C  0.94855909  0.74466587  0.77181030     0.19150
F911        F  0.90778776  0.72526056  0.79182181    -0.13710
F912        F  0.91202504  0.72247129  0.70576053    -0.16070
F913        F  0.56802205  0.80746227  0.79520716    -0.16070
F914        F  0.57595625  0.79789358  0.71029535    -0.13710
C915        C  0.70905789  0.54104076  0.72493588     0.24300
C916        C  0.75020652  0.51871392  0.70463583    -0.23800
C917        C  0.79018436  0.00030051  0.72943477     0.19210
C918        C  0.78859650  0.00342029  0.77376915     0.24250
C919        C  0.74660899  0.52439697  0.79423677    -0.23750
C920        C  0.70698123  0.54337088  0.76916329     0.19150
F921        F  0.66524957  0.56282272  0.78739973    -0.13710
F922        F  0.67073094  0.56088441  0.70185145    -0.16070
F923        F  0.82839002  0.98626527  0.79659132    -0.16070
F924        F  0.83019718  0.97796550  0.71081152    -0.13710
C925        C  0.78810599  0.50450181  0.22647650     0.24300
C926        C  0.74458911  0.52170025  0.20554400    -0.23800
C927        C  0.70321561  0.53686490  0.22997989     0.19230
C928        C  0.70523276  0.53480447  0.27429045     0.24250
C929        C  0.74831768  0.51656991  0.29525614    -0.23750
C930        C  0.78981759  0.50158117  0.27082636     0.19150
F931        F  0.83167206  0.48284041  0.28977541    -0.13710
F932        F  0.82930893  0.49098093  0.20399982    -0.16070
F933        F  0.66508935  0.55129323  0.29670761    -0.16070
F934        F  0.66016475  0.55253655  0.21096390    -0.13710
C935        C  0.53373281  0.78002542  0.27075639     0.24300
C936        C  0.99292893  0.76157902  0.29446588    -0.23800
C937        C  0.94950508  0.74559103  0.27284697     0.19210
C938        C  0.94710652  0.74787667  0.22845302     0.24250
C939        C  0.98783232  0.76679466  0.20488150    -0.23750
C940        C  0.53095469  0.78323630  0.22660525     0.19150
F941        F  0.57037637  0.80324096  0.20509918    -0.13710
F942        F  0.57686242  0.79431499  0.29029323    -0.16070
F943        F  0.90535270  0.73063834  0.20852798    -0.16070
F944        F  0.90894889  0.72867504  0.29469009    -0.13710
loop_ 
_geom_bond_atom_site_label_1 
_geom_bond_atom_site_label_2 
_geom_bond_distance 
_geom_bond_site_symmetry_2 
_ccdc_geom_bond_type 
O1          Zr13   2.387       .  S
O1          C239   1.277       .  A
O2          Zr39   2.480       .  S
O2            C3   1.297       .  A
C3          O237   1.277   1_545  A
C3           C74   1.469       .  S
O4          Zr16   2.387       .  S
O4          C478   1.277       .  A
O5          Zr40   2.477       .  S
O5            C6   1.297       .  A
C6          O476   1.277   1_455  A
C6          C566   1.468       .  S
O7          Zr16   2.384       .  S
O7          C245   1.276       .  A
O8          Zr39   2.480       .  S
O8            C9   1.298       .  A
C9          O243   1.276   1_545  A
C9           C83   1.467       .  S
O10         Zr13   2.386       .  S
O10         C484   1.277       .  A
O11         Zr40   2.480       .  S
O11          C12   1.297       .  A
C12         O482   1.277   1_455  A
C12          C65   1.469       .  S
Zr13         O14   2.434       .  S
Zr13         O15   2.435       .  S
Zr13         O19   2.356       .  S
Zr13         O20   2.358       .  S
Zr13        O515   2.362       .  S
Zr13        O281   2.359       .  S
O14          H57   0.990       .  S
O15          H56   0.990       .  S
O15          H60   0.990       .  S
Zr16         O17   2.439       .  S
Zr16         O18   2.435       .  S
Zr16         O20   2.355       .  S
Zr16         O19   2.355       .  S
Zr16        O280   2.360       .  S
Zr16        O518   2.364       .  S
O17          H58   0.990       .  S
O17          H61   0.990       .  S
O18          H51   0.990       .  S
O19        Zr275   2.382       .  S
O20        Zr512   2.394       .  S
O20          H47   0.965       .  S
O21         Zr33   2.392       .  S
O21         C259   1.278   1_545  A
O22         Zr40   2.479       .  S
O22          C23   1.297       .  A
C23         O257   1.278       .  A
C23         C312   1.470       .  S
O24         Zr36   2.385       .  S
O24         C498   1.277   1_455  A
O25         Zr39   2.481       .  S
O25          C26   1.298       .  A
C26         O496   1.277       .  A
C26          C92   1.469       .  S
O27         Zr36   2.386       .  S
O27         C265   1.278   1_545  A
O28         Zr40   2.484       .  S
O28          C29   1.298       .  A
C29         O263   1.278       .  A
C29         C321   1.472       .  S
O30         Zr33   2.387       .  S
O30         C504   1.277   1_455  A
O31         Zr39   2.478       .  S
O31          C32   1.297       .  A
C32         O502   1.277       .  A
C32         C539   1.468       .  S
Zr33         O34   2.438       .  S
Zr33         O35   2.435       .  S
Zr33         O41   2.357       .  S
Zr33         O42   2.358       .  S
Zr33        O517   2.362   1_455  S
Zr33        O279   2.364   1_545  S
O34          H54   0.990       .  S
O34          H59   0.990       .  S
O35          H55   0.990       .  S
Zr36         O37   2.434       .  S
Zr36         O38   2.434       .  S
Zr36         O42   2.357       .  S
Zr36         O41   2.356       .  S
Zr36        O282   2.362   1_545  S
Zr36        O516   2.361   1_455  S
O37          H53   0.990       .  S
O38          H52   0.990       .  S
O38          H62   0.990       .  S
Zr39         O44   2.402       .  S
Zr39         O45   2.404       .  S
Zr39        O255   2.382   1_545  S
Zr39        O514   2.382       .  S
Zr40         O43   2.404       .  S
Zr40         O46   2.403       .  S
Zr40        O492   2.394   1_455  S
Zr40        O277   2.392       .  S
O41        Zr276   2.392   1_545  S
O41          H49   0.965       .  S
O42        Zr511   2.382   1_455  S
O43        Zr485   2.362   1_455  S
O43        Zr269   2.364       .  S
O44        Zr252   2.360   1_545  S
O44        Zr508   2.361       .  S
O44          H48   0.966       .  S
O45        Zr249   2.359   1_545  S
O45        Zr505   2.362       .  S
O45          H50   0.966       .  S
O46        Zr488   2.364   1_455  S
O46        Zr272   2.362       .  S
C63         C228   1.486       .  S
C63          C64   1.401       .  A
C63          C68   1.403       .  A
C64         C537   1.402       .  A
C64          H69   1.085       .  S
C65          C66   1.406       .  A
C65         C536   1.402       .  A
C66          C67   1.407   1_455  A
C66          H70   1.078       .  S
C67         C504   1.468       .  S
C67         C540   1.405       .  A
C68         C539   1.405       .  A
C68          H71   1.084       .  S
C72         C221   1.487       .  S
C72          C73   1.404       .  A
C72          C77   1.404   1_545  A
C73          C74   1.404       .  A
C73          H78   1.084       .  S
C74          C75   1.407       .  A
C75          C76   1.406   1_545  A
C75          H79   1.077       .  S
C76         C259   1.470       .  S
C76          C77   1.403       .  A
C77          H80   1.084       .  S
C81         C208   1.483       .  S
C81          C82   1.402       .  A
C81          C86   1.403   1_545  A
C82          C83   1.403       .  A
C82          H87   1.084       .  S
C83          C84   1.408       .  A
C84          C85   1.406   1_545  A
C84          H88   1.077       .  S
C85         C265   1.472       .  S
C85          C86   1.403       .  A
C86          H89   1.084       .  S
C90         C198   1.489       .  S
C90          C91   1.404       .  A
C90          C95   1.402       .  A
C91          C92   1.406       .  A
C91          H96   1.084       .  S
C92          C93   1.407       .  A
C93          C94   1.405       .  A
C93         H569   1.078       .  S
C94         C478   1.468       .  S
C94          C95   1.402       .  A
C95          H98   1.084       .  S
H97         C565   1.078       .  S
C99         C218   1.487       .  S
C99         C104   1.403       .  A
C99         C336   1.402   1_545  A
C100        C101   1.403       .  A
C100        C335   1.402       .  A
C100        H105   1.084       .  S
C101        C116   1.468       .  S
C101        C338   1.407       .  A
C102        C103   1.407       .  A
C102        C337   1.407   1_545  A
C102        H106   1.078       .  S
C103        C136   1.470       .  S
C103        C104   1.405       .  A
C104        H107   1.084       .  S
O108       Zr120   2.393       .  S
O108        C110   1.278       .  A
O109       Zr146   2.480       .  S
O109        C110   1.298       .  A
C110        C183   1.470       .  S
O111       Zr123   2.399       .  S
O111        C113   1.279       .  A
O112       Zr147   2.471       .  S
O112        C113   1.295       .  A
C113        C172   1.466       .  S
O114       Zr123   2.390       .  S
O114        C116   1.277       .  A
O115       Zr146   2.477   1_554  S
O115        C116   1.297       .  A
O117       Zr120   2.396       .  S
O117        C119   1.279       .  A
O118       Zr147   2.470   1_556  S
O118        C119   1.296       .  A
C119        C190   1.464       .  S
Zr120       O121   2.434       .  S
Zr120       O122   2.435       .  S
Zr120       O126   2.356   1_556  S
Zr120       O127   2.355   1_556  S
Zr120       O150   2.364       .  S
Zr120       O152   2.362       .  S
O121        H164   0.990       .  S
O122        H163   0.990       .  S
O122        H167   0.990       .  S
Zr123       O124   2.439       .  S
Zr123       O125   2.435       .  S
Zr123       O127   2.354       .  S
Zr123       O126   2.357       .  S
Zr123       O151   2.364       .  S
Zr123       O153   2.364       .  S
O124        H165   0.990       .  S
O124        H168   0.990       .  S
O125        H158   0.990       .  S
O126       Zr146   2.388   1_554  S
O127       Zr147   2.398       .  S
O127        H154   0.965       .  S
O128       Zr140   2.384       .  S
O128        C130   1.277       .  A
O129       Zr147   2.485   1_556  S
O129        C130   1.298       .  A
C130        C181   1.475       .  S
O131       Zr143   2.380       .  S
O131        C133   1.276       .  A
O132       Zr146   2.488   1_554  S
O132        C133   1.299       .  A
C133        C174   1.472       .  S
O134       Zr143   2.385       .  S
O134        C136   1.277       .  A
O135       Zr147   2.483       .  S
O135        C136   1.298       .  A
O137       Zr140   2.376       .  S
O137        C139   1.275       .  A
O138       Zr146   2.491       .  S
O138        C139   1.300       .  A
C139        C192   1.472       .  S
Zr140       O141   2.440       .  S
Zr140       O142   2.435       .  S
Zr140       O148   2.354       .  S
Zr140       O149   2.358       .  S
Zr140       O152   2.361       .  S
Zr140       O150   2.361       .  S
O141        H161   0.990       .  S
O141        H166   0.990       .  S
O142        H162   0.990       .  S
Zr143       O144   2.434       .  S
Zr143       O145   2.435       .  S
Zr143       O149   2.359   1_554  S
Zr143       O148   2.357   1_554  S
Zr143       O153   2.360       .  S
Zr143       O151   2.359       .  S
O144        H160   0.990       .  S
O145        H159   0.990       .  S
O145        H169   0.990       .  S
Zr146       O149   2.380       .  S
Zr146       O151   2.405   1_556  S
Zr146       O152   2.404       .  S
Zr147       O148   2.384   1_554  S
Zr147       O150   2.403   1_554  S
Zr147       O153   2.403       .  S
O148        H156   0.965       .  S
O151        H155   0.966       .  S
O152        H157   0.966       .  S
C170        C231   1.485       .  S
C170        C175   1.405       .  A
C170        C643   1.401       .  A
C171        C172   1.398       .  A
C171        C642   1.401   1_455  A
C171        H176   1.084       .  S
C172        C645   1.407   1_455  A
C173        C174   1.406       .  A
C173        C644   1.407       .  A
C173        H177   1.076       .  S
C174        C175   1.407       .  A
C175        H178   1.084       .  S
C179        C211   1.490       .  S
C179        C180   1.403       .  A
C179        C420   1.403   1_545  A
C180        C181   1.405       .  A
C180        H185   1.084       .  S
C181        C182   1.407       .  A
C182        C419   1.409   1_545  A
C182        H186   1.078       .  S
C183        C184   1.404       .  A
C183        C418   1.409       .  A
C184        C415   1.403       .  A
C184        H187   1.084       .  S
C188        C201   1.483       .  S
C188        C193   1.404       .  A
C188        C661   1.400       .  A
C189        C190   1.398       .  A
C189        C660   1.400   1_455  A
C189        H194   1.085       .  S
C190        C663   1.407   1_455  A
C191        C192   1.406       .  A
C191        C662   1.407       .  A
C191        H195   1.076       .  S
C192        C193   1.408       .  A
C193        H196   1.084       .  S
C197        C198   1.410       .  A
C197        C202   1.401       .  A
C197        F204   1.358       .  S
C198        C671   1.409       .  A
C199        C200   1.395       .  A
C199        C670   1.409   1_455  A
C199        F206   1.358       .  S
C200        C673   1.406   1_455  A
C200        F205   1.358       .  S
C201        C202   1.406       .  A
C201        C672   1.406       .  A
C202        F203   1.358       .  S
C207        C208   1.405       .  A
C207        C212   1.396       .  A
C207        F214   1.358       .  S
C208        C445   1.407       .  A
C209        C210   1.401       .  A
C209        C444   1.407       .  A
C209        F216   1.358       .  S
C210        C447   1.411       .  A
C210        F215   1.358       .  S
C211        C212   1.410       .  A
C211        C446   1.411       .  A
C212        F213   1.358       .  S
C217        C218   1.408       .  A
C217        C222   1.400       .  A
C217        F224   1.358   1_545  S
C218        C219   1.407       .  A
C219        C220   1.398       .  A
C219        F226   1.358       .  S
C220        C221   1.409       .  A
C220        F225   1.358       .  S
C221        C222   1.408       .  A
C222        F223   1.358   1_545  S
C227        C232   1.395       .  A
C227        C700   1.407   1_455  A
C227        F234   1.358       .  S
C228        C229   1.409       .  A
C228        C699   1.407       .  A
C229        C230   1.401       .  A
C229        F236   1.358       .  S
C230        C231   1.408       .  A
C230        F235   1.358       .  S
C231        C704   1.408       .  A
C232        C703   1.408   1_455  A
C232        F233   1.358       .  S
O237       Zr249   2.387       .  S
O238       Zr275   2.480       .  S
O238        C239   1.297       .  A
C239        C310   1.469       .  S
O240       Zr252   2.387       .  S
O240        C714   1.277       .  A
O241       Zr276   2.477       .  S
O241        C242   1.297       .  A
C242        O712   1.277   1_455  A
C242        C802   1.468       .  S
O243       Zr252   2.384       .  S
O244       Zr275   2.480       .  S
O244        C245   1.298       .  A
C245        C319   1.467       .  S
O246       Zr249   2.386       .  S
O246        C720   1.277       .  A
O247       Zr276   2.480       .  S
O247        C248   1.297       .  A
C248        O718   1.277   1_455  A
C248        C301   1.469       .  S
Zr249       O250   2.434       .  S
Zr249       O251   2.435       .  S
Zr249       O255   2.356       .  S
Zr249       O256   2.358       .  S
Zr249       O751   2.362       .  S
O250        H293   0.990       .  S
O251        H292   0.990       .  S
O251        H296   0.990       .  S
Zr252       O253   2.439       .  S
Zr252       O254   2.435       .  S
Zr252       O256   2.355       .  S
Zr252       O255   2.355       .  S
Zr252       O754   2.364       .  S
O253        H294   0.990       .  S
O253        H297   0.990       .  S
O254        H287   0.990       .  S
O256       Zr748   2.394       .  S
O256        H283   0.965       .  S
O257       Zr269   2.392       .  S
O258       Zr276   2.479       .  S
O258        C259   1.297       .  A
O260       Zr272   2.385       .  S
O260        C734   1.277   1_455  A
O261       Zr275   2.481       .  S
O261        C262   1.298       .  A
C262        O732   1.277       .  A
C262        C328   1.469       .  S
O263       Zr272   2.386       .  S
O264       Zr276   2.484       .  S
O264        C265   1.298       .  A
O266       Zr269   2.387       .  S
O266        C740   1.277   1_455  A
O267       Zr275   2.478       .  S
O267        C268   1.297       .  A
C268        O738   1.277       .  A
C268        C775   1.468       .  S
Zr269       O270   2.438       .  S
Zr269       O271   2.435       .  S
Zr269       O277   2.357       .  S
Zr269       O278   2.358       .  S
Zr269       O753   2.362   1_455  S
O270        H290   0.990       .  S
O270        H295   0.990       .  S
O271        H291   0.990       .  S
Zr272       O273   2.434       .  S
Zr272       O274   2.434       .  S
Zr272       O278   2.357       .  S
Zr272       O277   2.356       .  S
Zr272       O752   2.361   1_455  S
O273        H289   0.990       .  S
O274        H288   0.990       .  S
O274        H298   0.990       .  S
Zr275       O750   2.382       .  S
Zr275       O280   2.402       .  S
Zr275       O281   2.404       .  S
Zr276       O728   2.394   1_455  S
Zr276       O279   2.404       .  S
Zr276       O282   2.403       .  S
O277        H285   0.965       .  S
O278       Zr747   2.382   1_455  S
O279       Zr721   2.362   1_455  S
O280       Zr744   2.361       .  S
O280        H284   0.966       .  S
O281       Zr741   2.362       .  S
O281        H286   0.966       .  S
O282       Zr724   2.364   1_455  S
C299        C464   1.486       .  S
C299        C300   1.401       .  A
C299        C304   1.403       .  A
C300        C773   1.402       .  A
C300        H305   1.085       .  S
C301        C772   1.402       .  A
C301        C302   1.406       .  A
C302        C303   1.407   1_455  A
C302        H306   1.078       .  S
C303        C740   1.468       .  S
C303        C776   1.405       .  A
C304        C775   1.405       .  A
C304        H307   1.084       .  S
C308        C457   1.487       .  S
C308        C309   1.404       .  A
C308        C313   1.404       .  A
C309        C310   1.404       .  A
C309        H314   1.084       .  S
C310        C311   1.407       .  A
C311        C312   1.406       .  A
C311        H315   1.077       .  S
C312        C313   1.403       .  A
C313        H316   1.084       .  S
C317        C444   1.483       .  S
C317        C318   1.402       .  A
C317        C322   1.403       .  A
C318        C319   1.403       .  A
C318        H323   1.084       .  S
C319        C320   1.408       .  A
C320        C321   1.406       .  A
C320        H324   1.077       .  S
C321        C322   1.403       .  A
C322        H325   1.084       .  S
C326        C434   1.489       .  S
C326        C327   1.404       .  A
C326        C331   1.402       .  A
C327        C328   1.406       .  A
C327        H332   1.084       .  S
C328        C329   1.407       .  A
C329        C330   1.405       .  A
C329        H805   1.078       .  S
C330        C714   1.468       .  S
C330        C331   1.402       .  A
C331        H334   1.084       .  S
H333        C801   1.078       .  S
C335        C454   1.487       .  S
C335        C340   1.403       .  A
C336        C337   1.403       .  A
C336        H341   1.084       .  S
C337        C352   1.468       .  S
C338        C339   1.407       .  A
C338        H342   1.078       .  S
C339        C372   1.470       .  S
C339        C340   1.405       .  A
C340        H343   1.084       .  S
O344       Zr356   2.393       .  S
O344        C346   1.278       .  A
O345       Zr382   2.480       .  S
O345        C346   1.298       .  A
C346        C419   1.470       .  S
O347       Zr359   2.399       .  S
O347        C349   1.279       .  A
O348       Zr383   2.471       .  S
O348        C349   1.295       .  A
C349        C408   1.466       .  S
O350       Zr359   2.390       .  S
O350        C352   1.277       .  A
O351       Zr382   2.477   1_554  S
O351        C352   1.297       .  A
O353       Zr356   2.396       .  S
O353        C355   1.279       .  A
O354       Zr383   2.470   1_556  S
O354        C355   1.296       .  A
C355        C426   1.464       .  S
Zr356       O357   2.434       .  S
Zr356       O358   2.435       .  S
Zr356       O362   2.356   1_556  S
Zr356       O363   2.355   1_556  S
Zr356       O386   2.364       .  S
Zr356       O388   2.362       .  S
O357        H400   0.990       .  S
O358        H399   0.990       .  S
O358        H403   0.990       .  S
Zr359       O360   2.439       .  S
Zr359       O361   2.435       .  S
Zr359       O363   2.354       .  S
Zr359       O362   2.357       .  S
Zr359       O387   2.364       .  S
Zr359       O389   2.364       .  S
O360        H401   0.990       .  S
O360        H404   0.990       .  S
O361        H394   0.990       .  S
O362       Zr382   2.388   1_554  S
O363       Zr383   2.398       .  S
O363        H390   0.965       .  S
O364       Zr376   2.384       .  S
O364        C366   1.277       .  A
O365       Zr383   2.485   1_556  S
O365        C366   1.298       .  A
C366        C417   1.475       .  S
O367       Zr379   2.380       .  S
O367        C369   1.276       .  A
O368       Zr382   2.488   1_554  S
O368        C369   1.299       .  A
C369        C410   1.472       .  S
O370       Zr379   2.385       .  S
O370        C372   1.277       .  A
O371       Zr383   2.483       .  S
O371        C372   1.298       .  A
O373       Zr376   2.376       .  S
O373        C375   1.275       .  A
O374       Zr382   2.491       .  S
O374        C375   1.300       .  A
C375        C428   1.472       .  S
Zr376       O377   2.440       .  S
Zr376       O378   2.435       .  S
Zr376       O384   2.354       .  S
Zr376       O385   2.358       .  S
Zr376       O388   2.361       .  S
Zr376       O386   2.361       .  S
O377        H397   0.990       .  S
O377        H402   0.990       .  S
O378        H398   0.990       .  S
Zr379       O380   2.434       .  S
Zr379       O381   2.435       .  S
Zr379       O385   2.359   1_554  S
Zr379       O384   2.357   1_554  S
Zr379       O389   2.360       .  S
Zr379       O387   2.359       .  S
O380        H396   0.990       .  S
O381        H395   0.990       .  S
O381        H405   0.990       .  S
Zr382       O385   2.380       .  S
Zr382       O387   2.405   1_556  S
Zr382       O388   2.404       .  S
Zr383       O384   2.384   1_554  S
Zr383       O386   2.403   1_554  S
Zr383       O389   2.403       .  S
O384        H392   0.965       .  S
O387        H391   0.966       .  S
O388        H393   0.966       .  S
C406        C467   1.485       .  S
C406        C879   1.401       .  A
C406        C411   1.405       .  A
C407        C878   1.401   1_455  A
C407        C408   1.398       .  A
C407        H412   1.084       .  S
C408        C881   1.407   1_455  A
C409        C880   1.407       .  A
C409        C410   1.406       .  A
C409        H413   1.076       .  S
C410        C411   1.407       .  A
C411        H414   1.084       .  S
C415        C447   1.490       .  S
C415        C416   1.403       .  A
C416        C417   1.405       .  A
C416        H421   1.084       .  S
C417        C418   1.407       .  A
C418        H422   1.078       .  S
C419        C420   1.404       .  A
C420        H423   1.084       .  S
C424        C437   1.483       .  S
C424        C897   1.400       .  A
C424        C429   1.404       .  A
C425        C896   1.400   1_455  A
C425        C426   1.398       .  A
C425        H430   1.085       .  S
C426        C899   1.407   1_455  A
C427        C898   1.407       .  A
C427        C428   1.406       .  A
C427        H431   1.076       .  S
C428        C429   1.408       .  A
C429        H432   1.084       .  S
C433        C434   1.410       .  A
C433        C438   1.401       .  A
C433        F440   1.358       .  S
C434        C907   1.409       .  A
C435        C906   1.409   1_455  A
C435        C436   1.395       .  A
C435        F442   1.358       .  S
C436        C909   1.406   1_455  A
C436        F441   1.358       .  S
C437        C908   1.406       .  A
C437        C438   1.406       .  A
C438        F439   1.358       .  S
C443        C444   1.405       .  A
C443        C448   1.396       .  A
C443        F450   1.358       .  S
C445        C446   1.401       .  A
C445        F452   1.358   1_545  S
C446        F451   1.358   1_545  S
C447        C448   1.410       .  A
C448        F449   1.358       .  S
C453        C454   1.408       .  A
C453        C458   1.400       .  A
C453        F460   1.358       .  S
C454        C455   1.407       .  A
C455        C456   1.398       .  A
C455        F462   1.358       .  S
C456        C457   1.409       .  A
C456        F461   1.358       .  S
C457        C458   1.408       .  A
C458        F459   1.358       .  S
C463        C936   1.407   1_455  A
C463        C468   1.395       .  A
C463        F470   1.358       .  S
C464        C935   1.407       .  A
C464        C465   1.409       .  A
C465        C466   1.401       .  A
C465        F472   1.358       .  S
C466        C467   1.408       .  A
C466        F471   1.358       .  S
C467        C940   1.408       .  A
C468        C939   1.408   1_455  A
C468        F469   1.358       .  S
O473       Zr485   2.387       .  S
O473        C711   1.277       .  A
O474       Zr511   2.480       .  S
O474        C475   1.297       .  A
C475        O709   1.277   1_545  A
C475        C546   1.469       .  S
O476       Zr488   2.387       .  S
O477       Zr512   2.477       .  S
O477        C478   1.297       .  A
O479       Zr488   2.384       .  S
O479        C717   1.276       .  A
O480       Zr511   2.480       .  S
O480        C481   1.298       .  A
C481        O715   1.276   1_545  A
C481        C555   1.467       .  S
O482       Zr485   2.386       .  S
O483       Zr512   2.480       .  S
O483        C484   1.297       .  A
C484        C537   1.469       .  S
Zr485       O486   2.434       .  S
Zr485       O487   2.435       .  S
Zr485       O491   2.356       .  S
Zr485       O492   2.358       .  S
Zr485       O753   2.359       .  S
O486        H529   0.990       .  S
O487        H528   0.990       .  S
O487        H532   0.990       .  S
Zr488       O489   2.439       .  S
Zr488       O490   2.435       .  S
Zr488       O492   2.355       .  S
Zr488       O491   2.355       .  S
Zr488       O752   2.360       .  S
O489        H530   0.990       .  S
O489        H533   0.990       .  S
O490        H523   0.990       .  S
O491       Zr747   2.382       .  S
O492        H519   0.965       .  S
O493       Zr505   2.392       .  S
O493        C731   1.278   1_545  A
O494       Zr512   2.479       .  S
O494        C495   1.297       .  A
C495        O729   1.278       .  A
C495        C784   1.470       .  S
O496       Zr508   2.385       .  S
O497       Zr511   2.481       .  S
O497        C498   1.298       .  A
C498        C564   1.469       .  S
O499       Zr508   2.386       .  S
O499        C737   1.278   1_545  A
O500       Zr512   2.484       .  S
O500        C501   1.298       .  A
C501        O735   1.278       .  A
C501        C793   1.472       .  S
O502       Zr505   2.387       .  S
O503       Zr511   2.478       .  S
O503        C504   1.297       .  A
Zr505       O506   2.438       .  S
Zr505       O507   2.435       .  S
Zr505       O513   2.357       .  S
Zr505       O514   2.358       .  S
Zr505       O751   2.364   1_545  S
O506        H526   0.990       .  S
O506        H531   0.990       .  S
O507        H527   0.990       .  S
Zr508       O509   2.434       .  S
Zr508       O510   2.434       .  S
Zr508       O514   2.357       .  S
Zr508       O513   2.356       .  S
Zr508       O754   2.362   1_545  S
O509        H525   0.990       .  S
O510        H524   0.990       .  S
O510        H534   0.990       .  S
Zr511       O727   2.382   1_545  S
Zr511       O516   2.402       .  S
Zr511       O517   2.404       .  S
Zr512       O749   2.392       .  S
Zr512       O515   2.404       .  S
Zr512       O518   2.403       .  S
O513       Zr748   2.392   1_545  S
O513        H521   0.965       .  S
O515       Zr741   2.364       .  S
O516       Zr724   2.360   1_545  S
O516        H520   0.966       .  S
O517       Zr721   2.359   1_545  S
O517        H522   0.966       .  S
O518       Zr744   2.362       .  S
C535        C700   1.486       .  S
C535        C536   1.401   1_655  A
C535        C540   1.403       .  A
C536        H541   1.085       .  S
C537        C538   1.406       .  A
C538        C539   1.407       .  A
C538        H542   1.078       .  S
C540        H543   1.084       .  S
C544        C693   1.487       .  S
C544        C545   1.404       .  A
C544        C549   1.404   1_545  A
C545        C546   1.404       .  A
C545        H550   1.084       .  S
C546        C547   1.407       .  A
C547        C548   1.406   1_545  A
C547        H551   1.077       .  S
C548        C731   1.470       .  S
C548        C549   1.403       .  A
C549        H552   1.084       .  S
C553        C680   1.483       .  S
C553        C554   1.402       .  A
C553        C558   1.403   1_545  A
C554        C555   1.403       .  A
C554        H559   1.084       .  S
C555        C556   1.408       .  A
C556        C557   1.406   1_545  A
C556        H560   1.077       .  S
C557        C737   1.472       .  S
C557        C558   1.403       .  A
C558        H561   1.084       .  S
C562        C670   1.489       .  S
C562        C563   1.404       .  A
C562        C567   1.402   1_655  A
C563        C564   1.406       .  A
C563        H568   1.084       .  S
C564        C565   1.407   1_655  A
C565        C566   1.405       .  A
C566        C567   1.402       .  A
C567        H570   1.084       .  S
C571        C690   1.487       .  S
C571        C808   1.402   1_545  A
C571        C576   1.403       .  A
C572        C807   1.402       .  A
C572        C573   1.403       .  A
C572        H577   1.084       .  S
C573        C588   1.468       .  S
C573        C810   1.407       .  A
C574        C809   1.407   1_545  A
C574        C575   1.407       .  A
C574        H578   1.078       .  S
C575        C608   1.470       .  S
C575        C576   1.405       .  A
C576        H579   1.084       .  S
O580       Zr592   2.393       .  S
O580        C582   1.278       .  A
O581       Zr618   2.480       .  S
O581        C582   1.298       .  A
C582        C655   1.470       .  S
O583       Zr595   2.399       .  S
O583        C585   1.279       .  A
O584       Zr619   2.471       .  S
O584        C585   1.295       .  A
C585        C644   1.466       .  S
O586       Zr595   2.390       .  S
O586        C588   1.277       .  A
O587       Zr618   2.477   1_554  S
O587        C588   1.297       .  A
O589       Zr592   2.396       .  S
O589        C591   1.279       .  A
O590       Zr619   2.470   1_556  S
O590        C591   1.296       .  A
C591        C662   1.464       .  S
Zr592       O593   2.434       .  S
Zr592       O594   2.435       .  S
Zr592       O598   2.356   1_556  S
Zr592       O599   2.355   1_556  S
Zr592       O622   2.364       .  S
Zr592       O624   2.362       .  S
O593        H636   0.990       .  S
O594        H635   0.990       .  S
O594        H639   0.990       .  S
Zr595       O596   2.439       .  S
Zr595       O597   2.435       .  S
Zr595       O599   2.354       .  S
Zr595       O598   2.357       .  S
Zr595       O623   2.364       .  S
Zr595       O625   2.364       .  S
O596        H637   0.990       .  S
O596        H640   0.990       .  S
O597        H630   0.990       .  S
O598       Zr618   2.388   1_554  S
O599       Zr619   2.398       .  S
O599        H626   0.965       .  S
O600       Zr612   2.384       .  S
O600        C602   1.277       .  A
O601       Zr619   2.485   1_556  S
O601        C602   1.298       .  A
C602        C653   1.475       .  S
O603       Zr615   2.380       .  S
O603        C605   1.276       .  A
O604       Zr618   2.488   1_554  S
O604        C605   1.299       .  A
C605        C646   1.472       .  S
O606       Zr615   2.385       .  S
O606        C608   1.277       .  A
O607       Zr619   2.483       .  S
O607        C608   1.298       .  A
O609       Zr612   2.376       .  S
O609        C611   1.275       .  A
O610       Zr618   2.491       .  S
O610        C611   1.300       .  A
C611        C664   1.472       .  S
Zr612       O613   2.440       .  S
Zr612       O614   2.435       .  S
Zr612       O620   2.354       .  S
Zr612       O621   2.358       .  S
Zr612       O624   2.361       .  S
Zr612       O622   2.361       .  S
O613        H633   0.990       .  S
O613        H638   0.990       .  S
O614        H634   0.990       .  S
Zr615       O616   2.434       .  S
Zr615       O617   2.435       .  S
Zr615       O621   2.359   1_554  S
Zr615       O620   2.357   1_554  S
Zr615       O625   2.360       .  S
Zr615       O623   2.359       .  S
O616        H632   0.990       .  S
O617        H631   0.990       .  S
O617        H641   0.990       .  S
Zr618       O621   2.380       .  S
Zr618       O623   2.405   1_556  S
Zr618       O624   2.404       .  S
Zr619       O620   2.384   1_554  S
Zr619       O622   2.403   1_554  S
Zr619       O625   2.403       .  S
O620        H628   0.965       .  S
O623        H627   0.966       .  S
O624        H629   0.966       .  S
C642        C703   1.485       .  S
C642        C647   1.405       .  A
C643        C644   1.398       .  A
C643        H648   1.084       .  S
C645        C646   1.406       .  A
C645        H649   1.076       .  S
C646        C647   1.407       .  A
C647        H650   1.084       .  S
C651        C683   1.490       .  S
C651        C652   1.403       .  A
C651        C892   1.403   1_545  A
C652        C653   1.405       .  A
C652        H657   1.084       .  S
C653        C654   1.407       .  A
C654        C891   1.409   1_545  A
C654        H658   1.078       .  S
C655        C890   1.409       .  A
C655        C656   1.404       .  A
C656        C887   1.403       .  A
C656        H659   1.084       .  S
C660        C673   1.483       .  S
C660        C665   1.404       .  A
C661        C662   1.398       .  A
C661        H666   1.085       .  S
C663        C664   1.406       .  A
C663        H667   1.076       .  S
C664        C665   1.408       .  A
C665        H668   1.084       .  S
C669        C670   1.410       .  A
C669        C674   1.401       .  A
C669        F676   1.358       .  S
C671        C672   1.395       .  A
C671        F678   1.358       .  S
C672        F677   1.358       .  S
C673        C674   1.406       .  A
C674        F675   1.358       .  S
C679        C680   1.405       .  A
C679        C684   1.396       .  A
C679        F686   1.358       .  S
C680        C917   1.407       .  A
C681        C916   1.407       .  A
C681        C682   1.401       .  A
C681        F688   1.358       .  S
C682        C919   1.411       .  A
C682        F687   1.358       .  S
C683        C918   1.411       .  A
C683        C684   1.410       .  A
C684        F685   1.358       .  S
C689        C690   1.408       .  A
C689        C694   1.400       .  A
C689        F696   1.358   1_545  S
C690        C691   1.407       .  A
C691        C692   1.398       .  A
C691        F698   1.358       .  S
C692        C693   1.409       .  A
C692        F697   1.358       .  S
C693        C694   1.408       .  A
C694        F695   1.358   1_545  S
C699        C704   1.395       .  A
C699        F706   1.358       .  S
C700        C701   1.409       .  A
C701        C702   1.401       .  A
C701        F708   1.358       .  S
C702        C703   1.408       .  A
C702        F707   1.358       .  S
C704        F705   1.358       .  S
O709       Zr721   2.387       .  S
O710       Zr747   2.480       .  S
O710        C711   1.297       .  A
C711        C782   1.469       .  S
O712       Zr724   2.387       .  S
O713       Zr748   2.477       .  S
O713        C714   1.297       .  A
O715       Zr724   2.384       .  S
O716       Zr747   2.480       .  S
O716        C717   1.298       .  A
C717        C791   1.467       .  S
O718       Zr721   2.386       .  S
O719       Zr748   2.480       .  S
O719        C720   1.297       .  A
C720        C773   1.469       .  S
Zr721       O722   2.434       .  S
Zr721       O723   2.435       .  S
Zr721       O727   2.356       .  S
Zr721       O728   2.358       .  S
O722        H765   0.990       .  S
O723        H764   0.990       .  S
O723        H768   0.990       .  S
Zr724       O725   2.439       .  S
Zr724       O726   2.435       .  S
Zr724       O728   2.355       .  S
Zr724       O727   2.355       .  S
O725        H766   0.990       .  S
O725        H769   0.990       .  S
O726        H759   0.990       .  S
O728        H755   0.965       .  S
O729       Zr741   2.392       .  S
O730       Zr748   2.479       .  S
O730        C731   1.297       .  A
O732       Zr744   2.385       .  S
O733       Zr747   2.481       .  S
O733        C734   1.298       .  A
C734        C800   1.469       .  S
O735       Zr744   2.386       .  S
O736       Zr748   2.484       .  S
O736        C737   1.298       .  A
O738       Zr741   2.387       .  S
O739       Zr747   2.478       .  S
O739        C740   1.297       .  A
Zr741       O742   2.438       .  S
Zr741       O743   2.435       .  S
Zr741       O749   2.357       .  S
Zr741       O750   2.358       .  S
O742        H762   0.990       .  S
O742        H767   0.990       .  S
O743        H763   0.990       .  S
Zr744       O745   2.434       .  S
Zr744       O746   2.434       .  S
Zr744       O750   2.357       .  S
Zr744       O749   2.356       .  S
O745        H761   0.990       .  S
O746        H760   0.990       .  S
O746        H770   0.990       .  S
Zr747       O752   2.402       .  S
Zr747       O753   2.404       .  S
Zr748       O751   2.404       .  S
Zr748       O754   2.403       .  S
O749        H757   0.965       .  S
O752        H756   0.966       .  S
O753        H758   0.966       .  S
C771        C936   1.486       .  S
C771        C772   1.401   1_655  A
C771        C776   1.403       .  A
C772        H777   1.085       .  S
C773        C774   1.406       .  A
C774        C775   1.407       .  A
C774        H778   1.078       .  S
C776        H779   1.084       .  S
C780        C929   1.487       .  S
C780        C781   1.404       .  A
C780        C785   1.404       .  A
C781        C782   1.404       .  A
C781        H786   1.084       .  S
C782        C783   1.407       .  A
C783        C784   1.406       .  A
C783        H787   1.077       .  S
C784        C785   1.403       .  A
C785        H788   1.084       .  S
C789        C916   1.483       .  S
C789        C790   1.402       .  A
C789        C794   1.403       .  A
C790        C791   1.403       .  A
C790        H795   1.084       .  S
C791        C792   1.408       .  A
C792        C793   1.406       .  A
C792        H796   1.077       .  S
C793        C794   1.403       .  A
C794        H797   1.084       .  S
C798        C906   1.489       .  S
C798        C799   1.404       .  A
C798        C803   1.402   1_655  A
C799        C800   1.406       .  A
C799        H804   1.084       .  S
C800        C801   1.407   1_655  A
C801        C802   1.405       .  A
C802        C803   1.402       .  A
C803        H806   1.084       .  S
C807        C926   1.487       .  S
C807        C812   1.403       .  A
C808        C809   1.403       .  A
C808        H813   1.084       .  S
C809        C824   1.468       .  S
C810        C811   1.407       .  A
C810        H814   1.078       .  S
C811        C844   1.470       .  S
C811        C812   1.405       .  A
C812        H815   1.084       .  S
O816       Zr828   2.393       .  S
O816        C818   1.278       .  A
O817       Zr854   2.480       .  S
O817        C818   1.298       .  A
C818        C891   1.470       .  S
O819       Zr831   2.399       .  S
O819        C821   1.279       .  A
O820       Zr855   2.471       .  S
O820        C821   1.295       .  A
C821        C880   1.466       .  S
O822       Zr831   2.390       .  S
O822        C824   1.277       .  A
O823       Zr854   2.477   1_554  S
O823        C824   1.297       .  A
O825       Zr828   2.396       .  S
O825        C827   1.279       .  A
O826       Zr855   2.470   1_556  S
O826        C827   1.296       .  A
C827        C898   1.464       .  S
Zr828       O829   2.434       .  S
Zr828       O830   2.435       .  S
Zr828       O834   2.356   1_556  S
Zr828       O835   2.355   1_556  S
Zr828       O858   2.364       .  S
Zr828       O860   2.362       .  S
O829        H872   0.990       .  S
O830        H871   0.990       .  S
O830        H875   0.990       .  S
Zr831       O832   2.439       .  S
Zr831       O833   2.435       .  S
Zr831       O835   2.354       .  S
Zr831       O834   2.357       .  S
Zr831       O859   2.364       .  S
Zr831       O861   2.364       .  S
O832        H873   0.990       .  S
O832        H876   0.990       .  S
O833        H866   0.990       .  S
O834       Zr854   2.388   1_554  S
O835       Zr855   2.398       .  S
O835        H862   0.965       .  S
O836       Zr848   2.384       .  S
O836        C838   1.277       .  A
O837       Zr855   2.485   1_556  S
O837        C838   1.298       .  A
C838        C889   1.475       .  S
O839       Zr851   2.380       .  S
O839        C841   1.276       .  A
O840       Zr854   2.488   1_554  S
O840        C841   1.299       .  A
C841        C882   1.472       .  S
O842       Zr851   2.385       .  S
O842        C844   1.277       .  A
O843       Zr855   2.483       .  S
O843        C844   1.298       .  A
O845       Zr848   2.376       .  S
O845        C847   1.275       .  A
O846       Zr854   2.491       .  S
O846        C847   1.300       .  A
C847        C900   1.472       .  S
Zr848       O849   2.440       .  S
Zr848       O850   2.435       .  S
Zr848       O856   2.354       .  S
Zr848       O857   2.358       .  S
Zr848       O860   2.361       .  S
Zr848       O858   2.361       .  S
O849        H869   0.990       .  S
O849        H874   0.990       .  S
O850        H870   0.990       .  S
Zr851       O852   2.434       .  S
Zr851       O853   2.435       .  S
Zr851       O857   2.359   1_554  S
Zr851       O856   2.357   1_554  S
Zr851       O861   2.360       .  S
Zr851       O859   2.359       .  S
O852        H868   0.990       .  S
O853        H867   0.990       .  S
O853        H877   0.990       .  S
Zr854       O857   2.380       .  S
Zr854       O859   2.405   1_556  S
Zr854       O860   2.404       .  S
Zr855       O856   2.384   1_554  S
Zr855       O858   2.403   1_554  S
Zr855       O861   2.403       .  S
O856        H864   0.965       .  S
O859        H863   0.966       .  S
O860        H865   0.966       .  S
C878        C939   1.485       .  S
C878        C883   1.405       .  A
C879        C880   1.398       .  A
C879        H884   1.084       .  S
C881        C882   1.406       .  A
C881        H885   1.076       .  S
C882        C883   1.407       .  A
C883        H886   1.084       .  S
C887        C919   1.490       .  S
C887        C888   1.403       .  A
C888        C889   1.405       .  A
C888        H893   1.084       .  S
C889        C890   1.407       .  A
C890        H894   1.078       .  S
C891        C892   1.404       .  A
C892        H895   1.084       .  S
C896        C909   1.483       .  S
C896        C901   1.404       .  A
C897        C898   1.398       .  A
C897        H902   1.085       .  S
C899        C900   1.406       .  A
C899        H903   1.076       .  S
C900        C901   1.408       .  A
C901        H904   1.084       .  S
C905        C906   1.410       .  A
C905        C910   1.401       .  A
C905        F912   1.358       .  S
C907        C908   1.395       .  A
C907        F914   1.358       .  S
C908        F913   1.358       .  S
C909        C910   1.406       .  A
C910        F911   1.358       .  S
C915        C916   1.405       .  A
C915        C920   1.396       .  A
C915        F922   1.358       .  S
C917        C918   1.401       .  A
C917        F924   1.358   1_545  S
C918        F923   1.358   1_545  S
C919        C920   1.410       .  A
C920        F921   1.358       .  S
C925        C926   1.408       .  A
C925        C930   1.400       .  A
C925        F932   1.358       .  S
C926        C927   1.407       .  A
C927        C928   1.398       .  A
C927        F934   1.358       .  S
C928        C929   1.409       .  A
C928        F933   1.358       .  S
C929        C930   1.408       .  A
C930        F931   1.358       .  S
C935        C940   1.395       .  A
C935        F942   1.358       .  S
C936        C937   1.409       .  A
C937        C938   1.401       .  A
C937        F944   1.358       .  S
C938        C939   1.408       .  A
C938        F943   1.358       .  S
C940        F941   1.358       .  S
