geometry optimzed in LAMMPS
_audit_creation_date              2020-11-30 
_audit_creation_method            'lammps2cif' 
_symmetry_space_group_name_H-M    'P1' 
_symmetry_Int_Tables_number       1 
_symmetry_cell_setting            triclinic 
loop_ 
_symmetry_equiv_pos_as_xyz 
  x,y,z 
_cell_length_a                    50.07412253 
_cell_length_b                    32.841625591322014 
_cell_length_c                    49.12705897148389 
_cell_angle_alpha                 89.9504900023737 
_cell_angle_beta                  89.64335680346697 
_cell_angle_gamma                 90.31323469590922 
loop_ 
_atom_site_label 
_atom_site_type_symbol 
_atom_site_fract_x 
_atom_site_fract_y 
_atom_site_fract_z 
_atom_site_charge 
O1          O  0.20437113  0.42962685  0.31147767    -0.75800
O2          O  0.22805631  0.38287249  0.28699028    -0.54700
C3          C  0.21163400  0.39295875  0.30604376     0.77900
O4          O  0.19457525  0.56309417  0.20046935    -0.60400
O5          O  0.21591144  0.61418163  0.22292943    -0.53400
C6          C  0.19846669  0.60101623  0.20589178     0.69900
O7          O  0.20284225  0.42710430  0.19883531    -0.75000
O8          O  0.22562885  0.38138543  0.22484825    -0.55500
C9          C  0.20974314  0.39069253  0.20528629     0.75900
O10         O  0.19669122  0.56586821  0.30775620    -0.60100
O11         O  0.21730447  0.61521363  0.28267878    -0.53200
C12         C  0.20088571  0.60337099  0.30138599     0.72500
Zr13       Zr  0.21310821  0.49867883  0.29531594     2.54700
O14         O  0.16472038  0.49229088  0.29837240    -0.80700
O15         O  0.21897054  0.50306462  0.34432654    -0.94100
Zr16       Zr  0.21002850  0.49610550  0.21509154     2.64700
O17         O  0.16308673  0.48533025  0.22629827    -0.99000
O18         O  0.20184326  0.49790731  0.16633341    -0.81100
O19         O  0.21216795  0.45726872  0.25574963    -0.84500
O20         O  0.20913474  0.53692691  0.25460604    -2.19200
O21         O  0.30249289  0.57791773  0.30363283    -0.67800
O22         O  0.27496711  0.62184582  0.28128056    -0.52400
C23         C  0.29388182  0.61387325  0.29798884     0.70900
O24         O  0.30560911  0.43551323  0.20018955    -0.60800
O25         O  0.28433742  0.38669848  0.22521671    -0.52700
C26         C  0.30122925  0.39802759  0.20698108     0.72700
O27         O  0.29888076  0.57384704  0.19650067    -0.72200
O28         O  0.27432330  0.61971107  0.22051562    -0.50800
C29         C  0.29163440  0.61055051  0.20205763     0.74100
O30         O  0.30840098  0.44036868  0.30569138    -0.67500
O31         O  0.28671859  0.38956248  0.28282390    -0.54700
C32         C  0.30413715  0.40256973  0.29994603     0.72500
Zr33       Zr  0.29190288  0.50720662  0.29172465     2.77500
O34         O  0.34031930  0.51193851  0.28779993    -0.98200
O35         O  0.29131202  0.50920269  0.34124239    -0.79000
Zr36       Zr  0.28905871  0.50388538  0.21122580     2.70100
O37         O  0.33747385  0.50909138  0.20819432    -0.80300
O38         O  0.28382819  0.49870223  0.16210580    -0.99400
Zr39       Zr  0.25387837  0.42288064  0.25443512     2.21500
Zr40       Zr  0.24753958  0.57977608  0.25207576     2.11100
O41         O  0.28931668  0.54514436  0.25081169    -2.48100
O42         O  0.29234191  0.46596954  0.25212061    -0.80100
O43         O  0.25078191  0.54258320  0.29347537    -0.72300
O44         O  0.25118900  0.46071510  0.21304388    -2.33200
O45         O  0.25418392  0.46346036  0.29457226    -2.29500
O46         O  0.24792159  0.53945851  0.21176869    -0.74000
H47         H  0.19295095  0.55271045  0.25501533     0.78000
H48         H  0.25179518  0.44307944  0.19740300     0.79000
H49         H  0.30406664  0.56435413  0.24985543     0.81300
H50         H  0.25564504  0.44664559  0.31060284     0.78900
H51         H  0.21983970  0.49595068  0.15799045     0.41900
H52         H  0.27578285  0.52488724  0.15657115     0.40900
H53         H  0.34382661  0.49822588  0.22579517     0.40600
H54         H  0.34362490  0.53480395  0.27505196     0.38500
H55         H  0.27818146  0.53060196  0.34583060     0.41600
H56         H  0.23460799  0.48577021  0.34822234     0.36400
H57         H  0.16084846  0.49156063  0.31815692     0.42500
H58         H  0.15675657  0.51189195  0.23322408     0.38900
H59         H  0.34621758  0.52237166  0.30570012     0.43900
H60         H  0.20354872  0.48798450  0.35211220     0.42600
H61         H  0.15421355  0.48200354  0.20848231     0.42700
H62         H  0.30227551  0.49968225  0.15477380     0.43100
O63         O  0.43933546  0.44581710  0.44596892    -0.75800
O64         O  0.46384494  0.40007132  0.46979850    -0.54700
C65         C  0.44642992  0.40931945  0.45161171     0.77900
O66         O  0.03617158  0.59138902  0.44365562    -0.60400
O67         O  0.01326661  0.63779398  0.46926980    -0.53400
C68         C  0.02969020  0.62810288  0.45021357     0.69900
O69         O  0.04070151  0.45282712  0.44422222    -0.75000
O70         O  0.01940069  0.40374365  0.46944383    -0.55500
C71         C  0.03579929  0.41548401  0.45080918     0.75900
O72         O  0.43376286  0.58203331  0.44622482    -0.60100
O73         O  0.45583262  0.63117964  0.46969820    -0.53200
C74         C  0.43882125  0.61963502  0.45179552     0.72500
Zr75       Zr  0.44924841  0.51483482  0.46037599     2.54700
O76         O  0.44962181  0.51699731  0.41083475    -0.80700
O77         O  0.40069539  0.51072276  0.46276565    -0.94100
Zr78       Zr  0.02606549  0.52116214  0.45745073     2.64700
O79         O  0.02049057  0.51767884  0.40830470    -0.99000
O80         O  0.07458287  0.52461756  0.45407751    -0.81100
O81         O  0.48987298  0.47790541  0.45929859    -0.84500
O82         O  0.48756513  0.55708684  0.45847743    -2.19200
O83         O  0.43584435  0.58737503  0.05506444    -0.67800
O84         O  0.45622083  0.63696510  0.02979088    -0.52400
C85         C  0.43966333  0.62487331  0.04830847     0.70900
O86         O  0.04662452  0.46082239  0.04971607    -0.60800
O87         O  0.02445213  0.41002426  0.02800913    -0.52700
C88         C  0.04263014  0.42302275  0.04434196     0.72700
O89         O  0.04146666  0.59768946  0.05001359    -0.72200
O90         O  0.01500201  0.64323928  0.02779159    -0.50800
C91         C  0.03345193  0.63400689  0.04478112     0.74100
O92         O  0.43917469  0.45085535  0.05570248    -0.67500
O93         O  0.46468784  0.40460699  0.03276938    -0.54700
C94         C  0.44653137  0.41421948  0.05029234     0.72500
Zr95       Zr  0.45224986  0.52003777  0.04271639     2.77500
O96         O  0.46201906  0.51985735  0.09125717    -0.98200
O97         O  0.40423611  0.51746743  0.05038709    -0.79000
Zr98       Zr  0.03124429  0.52801878  0.03640729     2.70100
O99         O  0.03836352  0.53020145  0.08534991    -0.80300
O100        O  0.07907284  0.53262703  0.02730544    -0.99400
Zr101      Zr  0.49167333  0.44419868  0.00067282     2.21500
Zr102      Zr  0.48628137  0.60137097  0.99889295     2.11100
O103        O  0.49007701  0.56349131  0.04008385    -2.48100
O104        O  0.49315947  0.48414819  0.04111538    -0.80100
O105        O  0.44764717  0.55892886  0.00219861    -0.72300
O106        O  0.03032137  0.48735549  0.99671524    -2.33200
O107        O  0.45034760  0.47992261  0.00265682    -2.29500
O108        O  0.02748735  0.56655838  0.99592489    -0.74000
H109        H  0.48669428  0.57429606  0.44257921     0.78000
H110        H  0.04634642  0.47131355  0.99570248     0.79000
H111        H  0.49028896  0.58122668  0.05575480     0.81300
H112        H  0.43541229  0.46108863  0.00360193     0.78900
H113        H  0.07970025  0.54816310  0.46551817     0.41900
H114        H  0.08115646  0.55670327  0.01532820     0.40900
H115        H  0.02037823  0.52591275  0.09335878     0.40600
H116        H  0.44981127  0.54033850  0.09919004     0.38500
H117        H  0.40212426  0.51998378  0.07037006     0.41600
H118        H  0.39662582  0.48204580  0.46755986     0.36400
H119        H  0.46215054  0.49525062  0.40532007     0.42500
H120        H  0.00397817  0.53311106  0.40462358     0.38900
H121        H  0.45511542  0.49344203  0.09809994     0.43900
H122        H  0.39485717  0.51346813  0.44363987     0.42600
H123        H  0.03508108  0.53481786  0.40076025     0.42700
H124        H  0.08691156  0.54132252  0.04482853     0.43100
C125        C  0.35729620  0.22288444  0.39449732     0.86000
C126        C  0.37514428  0.25033239  0.41229516    -0.54300
C127        C  0.39163299  0.27601516  0.39780367     0.08900
C128        C  0.38832739  0.27255531  0.36669390     0.19900
C129        C  0.34225947  0.25406576  0.37677342    -0.55000
C130        C  0.35837027  0.27968350  0.36231428     0.09000
C131        C  0.37646333  0.20166029  0.37474000    -0.54500
C132        C  0.39269833  0.22729872  0.36030224     0.09600
H133        H  0.37356870  0.25121111  0.43433030     0.14100
H134        H  0.40138570  0.29342584  0.35469884    -0.00200
H135        H  0.32086702  0.25849229  0.37668131     0.14400
H136        H  0.37697825  0.16881214  0.37216442     0.14200
O137        O  0.29548203  0.06368482  0.44377735    -0.75800
O138        O  0.27286809  0.11332759  0.46674502    -0.54700
C139        C  0.29076013  0.10101761  0.44970947     0.77900
O140        O  0.18081888  0.93639975  0.45072840    -0.60400
O141        O  0.20584173  0.88738668  0.47068380    -0.53400
C142        C  0.18672038  0.89887431  0.45524469     0.69900
O143        O  0.18576810  0.07432919  0.44899123    -0.75000
O144        O  0.21260146  0.11975256  0.47072131    -0.55500
C145        C  0.19337529  0.11106211  0.45452902     0.75900
O146        O  0.29065273  0.92866517  0.44618484    -0.60100
O147        O  0.26533129  0.88207364  0.46939687    -0.53200
C148        C  0.28406503  0.89200287  0.45259156     0.72500
Zr149      Zr  0.27664524  0.99785714  0.45601109     2.54700
O150        O  0.26830053  0.99641362  0.40723511    -0.80700
O151        O  0.32454923  0.99038461  0.44894720    -0.94100
Zr152      Zr  0.19759806  0.00415268  0.46162285     2.64700
O153        O  0.19335594  0.00094115  0.41232477    -0.99000
O154        O  0.14934599  0.00835825  0.46729641    -0.81100
O155        O  0.23848145  0.04070217  0.45729665    -0.84500
O156        O  0.23577535  0.96142562  0.45813559    -2.19200
O157        O  0.29277769  0.93340615  0.04823065    -0.67800
O158        O  0.26479814  0.88723852  0.02825127    -0.52400
C159        C  0.28459610  0.89678430  0.04354674     0.70900
O160        O  0.19093387  0.07741308  0.05565610    -0.60800
O161        O  0.21542586  0.12305300  0.03092082    -0.52700
C162        C  0.19815304  0.11400681  0.04952962     0.72700
O163        O  0.18718518  0.93876639  0.05457130    -0.72200
O164        O  0.20704405  0.89049363  0.02835622    -0.50800
C165        C  0.19137906  0.90137981  0.04766410     0.74100
O166        O  0.29366098  0.07186111  0.05223819    -0.67500
O167        O  0.27279694  0.12046800  0.02696901    -0.54700
C168        C  0.28931634  0.10914574  0.04536048     0.72500
Zr169      Zr  0.28014317  0.00344665  0.03758262     2.77500
O170        O  0.28241025  0.99942529  0.08704070    -0.98200
O171        O  0.32840460  0.00499271  0.03168929    -0.79000
Zr172      Zr  0.20107523  0.00784944  0.04136912     2.70100
O173        O  0.20441238  0.00616113  0.09075926    -0.80300
O174        O  0.15258858  0.01289623  0.04342024    -0.99400
Zr175      Zr  0.24157739  0.08364776  0.99871640     2.21500
Zr176      Zr  0.23667479  0.92784201  0.99889787     2.11100
O177        O  0.23951127  0.96625668  0.04003471    -2.48100
O178        O  0.24177585  0.04520067  0.03984943    -0.80100
O179        O  0.27795060  0.96361204  0.99737586    -0.72300
O180        O  0.20009507  0.04776114  0.00111592    -2.33200
O181        O  0.28044107  0.04230306  0.99703529    -2.29500
O182        O  0.19745642  0.96869820  0.00101378    -0.74000
H183        H  0.23436906  0.94379929  0.44245616     0.78000
H184        H  0.18524996  0.06630470  0.00200135     0.79000
H185        H  0.23968911  0.94865415  0.05578175     0.81300
H186        H  0.29652119  0.05876925  0.99647658     0.78900
H187        H  0.14233260  0.00929332  0.44850761     0.41900
H188        H  0.14594330  0.98562761  0.03805055     0.40900
H189        H  0.21732011  0.02807737  0.09518252     0.40600
H190        H  0.29822981  0.01596395  0.09202195     0.38500
H191        H  0.33153876  0.99078929  0.01420018     0.41600
H192        H  0.33285573  0.00978552  0.46182117     0.36400
H193        H  0.27709880  0.02128817  0.40003819     0.42500
H194        H  0.17689210  0.01626665  0.40825866     0.38900
H195        H  0.26698429  0.01552475  0.09353792     0.43900
H196        H  0.32814432  0.00204183  0.43068435     0.42600
H197        H  0.20804614  0.01841117  0.40530285     0.42700
H198        H  0.14839220  0.01489170  0.06309251     0.43100
C199        C  0.13360750  0.72523808  0.35517935     0.86000
C200        C  0.11722812  0.75234255  0.33594055    -0.54300
C201        C  0.10087979  0.77933377  0.34906256     0.08900
C202        C  0.10190078  0.77631286  0.38042448     0.19900
C203        C  0.14806221  0.75480628  0.37415029    -0.55000
C204        C  0.13175642  0.78163346  0.38740468     0.09000
C205        C  0.11194589  0.70504796  0.37303472    -0.54500
C206        C  0.09569618  0.73138223  0.38645584     0.09600
H207        H  0.11836147  0.75062679  0.31391216     0.14100
H208        H  0.08833021  0.79752696  0.39123886    -0.00200
H209        H  0.16957587  0.75443508  0.37688812     0.14400
H210        H  0.10842028  0.67247664  0.37416883     0.14200
O211        O  0.45117203  0.08821060  0.19400486    -0.75800
O212        O  0.47518670  0.13519569  0.21807096    -0.54700
C213        C  0.45791330  0.12501658  0.20002660     0.77900
O214        O  0.44584891  0.95596867  0.30237679    -0.60400
O215        O  0.46851189  0.90588490  0.27985142    -0.53400
C216        C  0.45082041  0.91859742  0.29677638     0.69900
O217        O  0.45089934  0.09200718  0.29986621    -0.75000
O218        O  0.47770598  0.13730557  0.27716986    -0.55500
C219        C  0.45870096  0.12829837  0.29384950     0.75900
O220        O  0.44672817  0.95039797  0.19640420    -0.60100
O221        O  0.46783366  0.90196672  0.22138130    -0.53200
C222        C  0.45084352  0.91313694  0.20344268     0.72500
Zr223      Zr  0.46216748  0.01891399  0.20779629     2.54700
O224        O  0.41358867  0.01984737  0.20866210    -0.80700
O225        O  0.46386397  0.01592248  0.15825768    -0.94100
Zr226      Zr  0.46267882  0.02231960  0.28871823     2.64700
O227        O  0.41417317  0.02799164  0.28964234    -0.99000
O228        O  0.46592061  0.02254949  0.33813036    -0.81100
O229        O  0.46298805  0.05993436  0.24755311    -0.84500
O230        O  0.46024591  0.98169683  0.24895974    -2.19200
O231        O  0.05383943  0.94448766  0.19569517    -0.67800
O232        O  0.02749737  0.89953170  0.21932232    -0.52400
C233        C  0.04595478  0.90818126  0.20196056     0.70900
O234        O  0.05834979  0.08626667  0.29818247    -0.60800
O235        O  0.03639483  0.13379765  0.27334022    -0.52700
C236        C  0.05390691  0.12335764  0.29097111     0.72700
O237        O  0.05387255  0.94841161  0.30160357    -0.72200
O238        O  0.02800054  0.90202308  0.27911529    -0.50800
C239        C  0.04650969  0.91169690  0.29592662     0.74100
O240        O  0.05702632  0.08337218  0.19238028    -0.67500
O241        O  0.03362470  0.13268423  0.21429699    -0.54700
C242        C  0.05116792  0.12099446  0.19681938     0.72500
Zr243      Zr  0.04297125  0.01507690  0.20740978     2.77500
O244        O  0.09144674  0.01515419  0.21094741    -0.98200
O245        O  0.04558520  0.01139313  0.15797313    -0.79000
Zr246      Zr  0.04157770  0.01786971  0.28831653     2.70100
O247        O  0.09000090  0.01469848  0.29194193    -0.80300
O248        O  0.03626174  0.02073103  0.33763961    -0.99400
Zr249      Zr  0.00465615  0.09676312  0.24566810     2.21500
Zr250      Zr  0.49893312  0.94002352  0.24907665     2.11100
O251        O  0.04166105  0.97710623  0.24849501    -2.48100
O252        O  0.04383803  0.05586639  0.24713233    -0.80100
O253        O  0.50032251  0.97663045  0.20726010    -0.72300
O254        O  0.00331966  0.06022616  0.28764066    -2.33200
O255        O  0.00422591  0.05615162  0.20537835    -2.29500
O256        O  0.50063675  0.97944842  0.28965759    -0.74000
H257        H  0.44412438  0.96553397  0.24936759     0.78000
H258        H  0.00376963  0.07860446  0.30291339     0.79000
H259        H  0.05655943  0.95864671  0.24887242     0.81300
H260        H  0.00477359  0.07282300  0.18924512     0.78900
H261        H  0.44722051  0.02028532  0.34463856     0.41900
H262        H  0.05043309  0.00281632  0.34478122     0.40900
H263        H  0.09676198  0.03539145  0.27890631     0.40600
H264        H  0.09554926  0.99194663  0.22307608     0.38500
H265        H  0.03016771  0.02740655  0.15154544     0.41600
H266        H  0.47860717  0.03455734  0.15297677     0.36400
H267        H  0.40891837  0.02298896  0.22815511     0.42500
H268        H  0.40746262  0.00228864  0.28161693     0.38900
H269        H  0.09777834  0.00642711  0.19274775     0.43900
H270        H  0.44744433  0.02984935  0.15221194     0.42600
H271        H  0.40922986  0.02619835  0.30915203     0.42700
H272        H  0.04201285  0.04853533  0.34283133     0.43100
C273        C  0.38173009  0.79836739  0.14581474     0.86000
C274        C  0.36420802  0.76927933  0.16320031    -0.54300
C275        C  0.34821547  0.74371009  0.14831192     0.08900
C276        C  0.35178812  0.74898086  0.11717843     0.19900
C277        C  0.39743084  0.77018332  0.12687246    -0.55000
C278        C  0.38206208  0.74401601  0.11224750     0.09000
C279        C  0.36121856  0.81983433  0.12786459    -0.54500
C280        C  0.34626552  0.79446379  0.11216128     0.09600
H281        H  0.36443342  0.76828054  0.18521049     0.14100
H282        H  0.33930054  0.72828432  0.10464920    -0.00200
H283        H  0.41911559  0.76994815  0.12583364     0.14400
H284        H  0.35883860  0.85265640  0.12717096     0.14200
C285        C  0.10858733  0.30399074  0.10266590     0.86000
C286        C  0.12491715  0.27390473  0.08539417    -0.54300
C287        C  0.13951659  0.24656289  0.10017392     0.08900
C288        C  0.13566103  0.25111764  0.13123585     0.19900
C289        C  0.09120121  0.27715144  0.12127364    -0.55000
C290        C  0.10512276  0.24914563  0.13584901     0.09000
C291        C  0.12912596  0.32284230  0.12249395    -0.54500
C292        C  0.14346353  0.29544037  0.13705504     0.09600
H293        H  0.12421799  0.27374324  0.06333043     0.14100
H294        H  0.14707789  0.22911998  0.14367218    -0.00200
H295        H  0.06957397  0.27913119  0.12220532     0.14400
H296        H  0.13228595  0.35494595  0.12607867     0.14200
C297        C  0.35516955  0.22772761  0.10372132     0.86000
C298        C  0.34041997  0.25530915  0.12399643    -0.54300
C299        C  0.35656404  0.27988069  0.13948104     0.08900
C300        C  0.38653155  0.27412593  0.13311818     0.19900
C301        C  0.37249914  0.25782375  0.08693843    -0.55000
C302        C  0.38850814  0.28241176  0.10227307     0.09000
C303        C  0.37559307  0.20437739  0.12059330    -0.54500
C304        C  0.39165120  0.22816658  0.13624695     0.09600
H305        H  0.31876809  0.25606412  0.12524088     0.14100
H306        H  0.40028200  0.29259569  0.14568494    -0.00200
H307        H  0.37219936  0.26133154  0.06507389     0.14400
H308        H  0.37720792  0.17138912  0.12026926     0.14200
C309        C  0.13505010  0.72151690  0.14576456     0.86000
C310        C  0.15119618  0.75031037  0.12698500    -0.54300
C311        C  0.13631097  0.77917598  0.11370797     0.08900
C312        C  0.10605841  0.77472734  0.11939554     0.19900
C313        C  0.11877501  0.74979060  0.16425856    -0.55000
C314        C  0.10370661  0.77752050  0.15059522     0.09000
C315        C  0.11452395  0.70267239  0.12617334    -0.54500
C316        C  0.09936803  0.73018816  0.11265096     0.09600
H317        H  0.17267792  0.74814944  0.12458024     0.14100
H318        H  0.09328119  0.79635209  0.10816389    -0.00200
H319        H  0.11958543  0.74861466  0.18633633     0.14400
H320        H  0.11245271  0.67041290  0.12201396     0.14200
C321        C  0.10101510  0.29342092  0.39598566     0.86000
C322        C  0.08842799  0.26480470  0.37457827    -0.54300
C323        C  0.10629282  0.24026922  0.36098502     0.08900
C324        C  0.13531875  0.24655853  0.37076793     0.19900
C325        C  0.11600138  0.26425678  0.41488300    -0.55000
C326        C  0.13384311  0.23982815  0.40179646     0.09000
C327        C  0.12260277  0.31637808  0.37981877    -0.54500
C328        C  0.14079472  0.29224996  0.36717555     0.09600
H329        H  0.06731825  0.26321344  0.37031754     0.14100
H330        H  0.15073865  0.22828353  0.36042262    -0.00200
H331        H  0.11238654  0.26246559  0.43668065     0.14400
H332        H  0.12357783  0.34940473  0.37863354     0.14200
C333        C  0.38612512  0.79733999  0.35249937     0.86000
C334        C  0.40129813  0.76340604  0.36738364    -0.54300
C335        C  0.38557835  0.73824081  0.38292641     0.08900
C336        C  0.35549197  0.74777483  0.38061492     0.19900
C337        C  0.36584823  0.77354634  0.33515942    -0.55000
C338        C  0.35028892  0.74680433  0.34958970     0.09000
C339        C  0.36932896  0.81835849  0.37417433    -0.54500
C340        C  0.35333508  0.79298238  0.38894239     0.09600
H341        H  0.42276045  0.75948064  0.36585588     0.14100
H342        H  0.34232252  0.72738674  0.39279617    -0.00200
H343        H  0.36550778  0.77420342  0.31309493     0.14400
H344        H  0.36968927  0.85113072  0.37727806     0.14200
C345        C  0.09333019  0.14455870  0.31834116    -0.09700
C346        C  0.06995639  0.15578525  0.30457288     0.06500
C347        C  0.06231692  0.19717926  0.30531508    -0.03400
C348        C  0.07565041  0.22422086  0.32257453    -0.07900
C349        C  0.09714835  0.21178640  0.33892853     0.05600
C350        C  0.10738881  0.17209790  0.33468253    -0.02900
Br351      Br  0.13997968  0.15157892  0.34961408    -0.02600
H352        H  0.10073921  0.11372655  0.31661907     0.09600
H353        H  0.06872542  0.25537486  0.32352332     0.07600
Br354      Br  0.03371959  0.21967817  0.28420199    -0.03000
C355        C  0.09334932  0.17678282  0.14312570    -0.09700
C356        C  0.09151634  0.21707400  0.15197613     0.06500
C357        C  0.07534444  0.22611762  0.17463069    -0.03400
C358        C  0.06281546  0.19446811  0.18907902    -0.07900
C359        C  0.06535312  0.15340653  0.18086205     0.05600
C360        C  0.08064767  0.14504277  0.15713039    -0.02900
Br361      Br  0.08427170  0.09205584  0.14102188    -0.02600
H362        H  0.10372390  0.17007039  0.12435001     0.09600
H363        H  0.05085830  0.20227934  0.20674366     0.07600
Br364      Br  0.06927034  0.28121326  0.18614457    -0.03000
C365        C  0.39513270  0.84552015  0.31289263    -0.09700
C366        C  0.40384287  0.82819816  0.33762633     0.06500
C367        C  0.42721094  0.84485455  0.34981723    -0.03400
C368        C  0.44277489  0.87318938  0.33563384    -0.07900
C369        C  0.43454941  0.88805242  0.31051496     0.05600
C370        C  0.41009000  0.87556731  0.29962048    -0.02900
Br371      Br  0.39568409  0.90086254  0.26763898    -0.02600
H372        H  0.37603812  0.83753194  0.30426290     0.09600
H373        H  0.46093360  0.88489677  0.34472183     0.07600
Br374      Br  0.43833826  0.83429712  0.38655401    -0.03000
C375        C  0.06079919  0.81080024  0.16312292    -0.09700
C376        C  0.08874299  0.80993590  0.16470146     0.06500
C377        C  0.10230121  0.84130029  0.17856565    -0.03400
C378        C  0.08791043  0.87302586  0.19039434    -0.07900
C379        C  0.05999219  0.87395500  0.18898924     0.05600
C380        C  0.04632071  0.84240929  0.17532972    -0.02900
Br381      Br  0.00823649  0.84273524  0.17112438    -0.02600
H382        H  0.05028251  0.78705694  0.15217483     0.09600
H383        H  0.09860415  0.89723780  0.20069794     0.07600
Br384      Br  0.14056774  0.84445998  0.17967606    -0.03000
C385        C  0.42808946  0.88904096  0.16205091    -0.09700
C386        C  0.43495061  0.88161183  0.18918724     0.06500
C387        C  0.42640812  0.84478780  0.20140321    -0.03400
C388        C  0.40910951  0.81873619  0.18734853    -0.07900
C389        C  0.40053937  0.82759317  0.16071642     0.05600
C390        C  0.41223760  0.86187202  0.14744244    -0.02900
Br391      Br  0.40962609  0.87308231  0.10905282    -0.02600
H392        H  0.43588452  0.91579412  0.15171743     0.09600
H393        H  0.40329573  0.79071183  0.19727423     0.07600
Br394      Br  0.43753446  0.82725218  0.23684707    -0.03000
C395        C  0.43153108  0.18486673  0.14073948    -0.09700
C396        C  0.41243724  0.20955954  0.15349085     0.06500
C397        C  0.41089015  0.21013443  0.18217370    -0.03400
C398        C  0.42737798  0.18445577  0.19745624    -0.07900
C399        C  0.44494055  0.15752346  0.18441197     0.05600
C400        C  0.44760496  0.15887974  0.15591227    -0.02900
Br401      Br  0.47230439  0.12469789  0.13672207    -0.02600
H402        H  0.43293863  0.18423321  0.11872248     0.09600
H403        H  0.42518362  0.18353212  0.21939882     0.07600
Br404      Br  0.38443885  0.24121483  0.20123640    -0.03000
C405        C  0.10095434  0.84040783  0.31938183    -0.09700
C406        C  0.08618683  0.81151240  0.33433410     0.06500
C407        C  0.05819318  0.81525925  0.33591541    -0.03400
C408        C  0.04557776  0.84798601  0.32312613    -0.07900
C409        C  0.06050724  0.87786849  0.30929893     0.05600
C410        C  0.08842333  0.87375674  0.30730238    -0.02900
Br411      Br  0.11019281  0.91209471  0.28758644    -0.02600
H412        H  0.12247868  0.83775958  0.31791341     0.09600
H413        H  0.02402252  0.85042095  0.32426812     0.07600
Br414      Br  0.03606546  0.77599951  0.35418179    -0.03000
C415        C  0.30607452  0.13980685  0.08818619    -0.09700
C416        C  0.30449808  0.14114388  0.05976767     0.06500
C417        C  0.31791780  0.17252821  0.04568847    -0.03400
C418        C  0.33348618  0.20072347  0.05987758    -0.07900
C419        C  0.33621630  0.19883785  0.08842512     0.05600
C420        C  0.32126639  0.16840429  0.10257771    -0.02900
Br421      Br  0.32068831  0.16318617  0.14161062    -0.02600
H422        H  0.29533285  0.11631094  0.09931596     0.09600
H423        H  0.34338153  0.22367244  0.04785079     0.07600
Br424      Br  0.31735951  0.17714909  0.00679920    -0.03000
C425        C  0.18525778  0.18725459  0.05196848    -0.09700
C426        C  0.18491544  0.14832996  0.06401065     0.06500
C427        C  0.17156259  0.14348057  0.08927545    -0.03400
C428        C  0.15736434  0.17588832  0.10049032    -0.07900
C429        C  0.15634120  0.21404793  0.08769163     0.05600
C430        C  0.17179328  0.22008620  0.06382895    -0.02900
Br431      Br  0.17832893  0.27283779  0.04815978    -0.02600
H432        H  0.19625242  0.19248056  0.03321848     0.09600
H433        H  0.14738534  0.17087199  0.11970064     0.07600
Br434      Br  0.17305933  0.09498463  0.11109543    -0.03000
C435        C  0.17109595  0.79946993  0.07962691    -0.09700
C436        C  0.14893314  0.81077491  0.09561519     0.06500
C437        C  0.14058542  0.85195555  0.09458271    -0.03400
C438        C  0.15461107  0.88012719  0.07863210    -0.07900
C439        C  0.17704431  0.86900941  0.06321029     0.05600
C440        C  0.18516728  0.82774676  0.06367944    -0.02900
Br441      Br  0.21578298  0.80714183  0.04439916    -0.02600
H442        H  0.17769701  0.76812915  0.07948233     0.09600
H443        H  0.14782427  0.91140071  0.07846930     0.07600
Br444      Br  0.11135906  0.87449091  0.11471357    -0.03000
C445        C  0.30741949  0.80799490  0.40547709    -0.09700
C446        C  0.33508561  0.80980070  0.40984552     0.06500
C447        C  0.34507443  0.83496681  0.43075635    -0.03400
C448        C  0.32768846  0.85953468  0.44566012    -0.07900
C449        C  0.30028702  0.85971692  0.44013954     0.05600
C450        C  0.29000128  0.83311166  0.42029767    -0.02900
Br451      Br  0.25303847  0.83422353  0.41035442    -0.02600
H452        H  0.29960326  0.78959803  0.38902956     0.09600
H453        H  0.33577286  0.88008722  0.46081176     0.07600
Br454      Br  0.38249590  0.83897616  0.43870799    -0.03000
C455        C  0.15226749  0.13805204  0.43242372    -0.09700
C456        C  0.17843005  0.14540428  0.44175660     0.06500
C457        C  0.18901852  0.18553109  0.43911522    -0.03400
C458        C  0.17428069  0.21570111  0.42581577    -0.07900
C459        C  0.14865124  0.20755800  0.41606802     0.05600
C460        C  0.13722312  0.16892888  0.42036373    -0.02900
Br461      Br  0.10082583  0.15745996  0.41071869    -0.02600
H462        H  0.14312885  0.10832609  0.43503286     0.09600
H463        H  0.18276891  0.24591004  0.42329029     0.07600
Br464      Br  0.22310473  0.20248324  0.45300971    -0.03000
C465        C  0.28635384  0.83803963  0.07577437    -0.09700
C466        C  0.29937241  0.86372846  0.05694560     0.06500
C467        C  0.32719114  0.86069089  0.05348466    -0.03400
C468        C  0.34178903  0.83464811  0.07011232    -0.07900
C469        C  0.32917486  0.81155935  0.09055636     0.05600
C470        C  0.30112767  0.81222656  0.09276697    -0.02900
Br471      Br  0.28263536  0.78228853  0.12066716    -0.02600
H472        H  0.26494416  0.84021053  0.07863804     0.09600
H473        H  0.36335686  0.83422313  0.06817679     0.07600
Br474      Br  0.34626431  0.89271758  0.02695758    -0.03000
C475        C  0.15080632  0.88053412  0.42263088    -0.09700
C476        C  0.17069865  0.86737856  0.44070888     0.06500
C477        C  0.17514921  0.82494519  0.44322205    -0.03400
C478        C  0.16153289  0.79779431  0.42624946    -0.07900
C479        C  0.14277322  0.81143994  0.40718999     0.05600
C480        C  0.13669014  0.85323574  0.40634415    -0.02900
Br481      Br  0.11062509  0.87641349  0.38269171    -0.02600
H482        H  0.14636587  0.91262219  0.42058405     0.09600
H483        H  0.16577377  0.76555656  0.42783252     0.07600
Br484      Br  0.19904989  0.80090850  0.46910410    -0.03000
C485        C  0.40051489  0.19082263  0.31712013    -0.09700
C486        C  0.41138699  0.21127069  0.33954578     0.06500
C487        C  0.43915838  0.20948835  0.34405242    -0.03400
C488        C  0.45514077  0.18448438  0.32758712    -0.07900
C489        C  0.44366985  0.16145303  0.30663339     0.05600
C490        C  0.41644207  0.16610206  0.30068936    -0.02900
Br491      Br  0.40002226  0.13726431  0.27114082    -0.02600
H492        H  0.37924446  0.19226369  0.31333069     0.09600
H493        H  0.47613610  0.18103366  0.33223107     0.07600
Br494      Br  0.45571854  0.23710611  0.37390436    -0.03000
C495        C  0.31265104  0.18615420  0.40304803    -0.09700
C496        C  0.33981851  0.19177337  0.41001883     0.06500
C497        C  0.35075272  0.16447854  0.42945376    -0.03400
C498        C  0.33452104  0.13497134  0.44201321    -0.07900
C499        C  0.30733358  0.13185357  0.43593345     0.05600
C500        C  0.29661503  0.15692268  0.41582988    -0.02900
Br501      Br  0.26078319  0.14944419  0.40314095    -0.02600
H502        H  0.30352196  0.20260342  0.38665687     0.09600
H503        H  0.34314433  0.11443960  0.45680143     0.07600
Br504      Br  0.38771931  0.16398176  0.43946723    -0.03000
C505        C  0.05458140  0.35086845  0.05606875    -0.09700
C506        C  0.06038872  0.39279322  0.05784945     0.06500
C507        C  0.08368049  0.40469832  0.07206616    -0.03400
C508        C  0.09931679  0.37566262  0.08487723    -0.07900
C509        C  0.09237896  0.33410859  0.08540963     0.05600
C510        C  0.07030487  0.32170356  0.06933629    -0.02900
Br511      Br  0.06071466  0.26555373  0.06375605    -0.02600
H512        H  0.03758803  0.34049517  0.04438685     0.09600
H513        H  0.11745777  0.38680700  0.09378100     0.07600
Br514      Br  0.09700516  0.45964469  0.07506863    -0.03000
C515        C  0.06728516  0.68912912  0.04899446    -0.09700
C516        C  0.04608481  0.66681584  0.06048149     0.06500
C517        C  0.04011553  0.67124686  0.08833489    -0.03400
C518        C  0.05614726  0.69611737  0.10460377    -0.07900
C519        C  0.07856224  0.71611271  0.09360411     0.05600
C520        C  0.08368684  0.71346176  0.06542485    -0.02900
Br521      Br  0.11470607  0.73808443  0.04917748    -0.02600
H522        H  0.07227190  0.68527615  0.02765913     0.09600
H523        H  0.05234897  0.69733444  0.12633076     0.07600
Br524      Br  0.01182662  0.64068975  0.10543398    -0.03000
C525        C  0.39925296  0.71924448  0.06760899    -0.09700
C526        C  0.39444393  0.71190657  0.09532053     0.06500
C527        C  0.40466709  0.67633629  0.10730632    -0.03400
C528        C  0.41888464  0.64841981  0.09148549    -0.07900
C529        C  0.42412907  0.65573169  0.06375661     0.05600
C530        C  0.41417143  0.69178801  0.05183554    -0.02900
Br531      Br  0.41967196  0.70505699  0.01419195    -0.02600
H532        H  0.39198046  0.74700980  0.05838901     0.09600
H533        H  0.42661506  0.62132638  0.10119399     0.07600
Br534      Br  0.40113889  0.66538966  0.14553587    -0.03000
C535        C  0.05721926  0.69149031  0.44711163    -0.09700
C536        C  0.04190514  0.66125695  0.43420005     0.06500
C537        C  0.04019707  0.66108818  0.40566150    -0.03400
C538        C  0.05569779  0.68811740  0.39040981    -0.07900
C539        C  0.07331416  0.71536375  0.40310016     0.05600
C540        C  0.07306153  0.71847945  0.43170842    -0.02900
Br541      Br  0.09613377  0.75544483  0.45065738    -0.02600
H542        H  0.05830454  0.69226608  0.46912805     0.09600
H543        H  0.05555518  0.68571963  0.36840703     0.07600
Br544      Br  0.01790436  0.62327148  0.38645403    -0.03000
C545        C  0.41917407  0.72010649  0.41792247    -0.09700
C546        C  0.39753782  0.70779953  0.40174566     0.06500
C547        C  0.38883920  0.66699521  0.40334453    -0.03400
C548        C  0.40213178  0.63946572  0.42023595    -0.07900
C549        C  0.42430054  0.65136824  0.43594052     0.05600
C550        C  0.43254778  0.69274147  0.43483213    -0.02900
Br551      Br  0.46242504  0.71475670  0.45454913    -0.02600
H552        H  0.42594753  0.75147327  0.41725474     0.09600
H553        H  0.39521987  0.60816299  0.42064047     0.07600
Br554      Br  0.36034413  0.64558611  0.38175763    -0.03000
C555        C  0.07869311  0.38223447  0.44158304    -0.09700
C556        C  0.05127880  0.38378827  0.43692517     0.06500
C557        C  0.03928734  0.35437449  0.42018580    -0.03400
C558        C  0.05503687  0.32459403  0.40759394    -0.07900
C559        C  0.08299559  0.32327075  0.41151431     0.05600
C560        C  0.09448092  0.35227179  0.42956740    -0.02900
Br561      Br  0.13181950  0.35396883  0.43870869    -0.02600
H562        H  0.08789172  0.40437254  0.45498516     0.09600
H563        H  0.04488095  0.30309304  0.39473250     0.07600
Br564      Br  0.00166346  0.35495413  0.41291828    -0.03000
C565        C  0.43122100  0.31890470  0.09193809    -0.09700
C566        C  0.40332668  0.31713434  0.09005227     0.06500
C567        C  0.38975497  0.34849832  0.07625337    -0.03400
C568        C  0.40421806  0.38012294  0.06392061    -0.07900
C569        C  0.43221974  0.38097031  0.06467567     0.05600
C570        C  0.44572653  0.35039087  0.07925484    -0.02900
Br571      Br  0.48374467  0.35147939  0.08361068    -0.02600
H572        H  0.44175360  0.29543840  0.10298214     0.09600
H573        H  0.39353927  0.40390343  0.05331647     0.07600
Br574      Br  0.35142942  0.35075928  0.07477685    -0.03000
C575        C  0.43647487  0.33544620  0.44605867    -0.09700
C576        C  0.43333282  0.37549139  0.43646616     0.06500
C577        C  0.41762051  0.38171644  0.41285387    -0.03400
C578        C  0.40519720  0.34859342  0.40027716    -0.07900
C579        C  0.40746969  0.30904866  0.41068027     0.05600
C580        C  0.42386068  0.30252946  0.43345277    -0.02900
Br581      Br  0.43127411  0.24945308  0.44755347    -0.02600
H582        H  0.44872279  0.32944713  0.46368972     0.09600
H583        H  0.39300411  0.35410447  0.38254119     0.07600
Br584      Br  0.41169995  0.43373303  0.39592554    -0.03000
C585        C  0.33478837  0.65398856  0.30620505    -0.09700
C586        C  0.30746051  0.64858170  0.31103132     0.06500
C587        C  0.29384734  0.67634951  0.32794095    -0.03400
C588        C  0.30801917  0.70799371  0.34070794    -0.07900
C589        C  0.33545176  0.71352484  0.33573907     0.05600
C590        C  0.34871877  0.68644157  0.31784790    -0.02900
Br591      Br  0.38618758  0.69038032  0.30941429    -0.02600
H592        H  0.34533226  0.63299927  0.29300528     0.09600
H593        H  0.29755892  0.72861459  0.35420725     0.07600
Br594      Br  0.25613488  0.67159725  0.33443802    -0.03000
C595        C  0.17987931  0.33866900  0.36562256    -0.09700
C596        C  0.16369174  0.31021015  0.35211408     0.06500
C597        C  0.16735479  0.30415824  0.32393723    -0.03400
C598        C  0.18512035  0.32920266  0.30939436    -0.07900
C599        C  0.19916370  0.36047063  0.32254201     0.05600
C600        C  0.19760031  0.36359697  0.35110675    -0.02900
Br601      Br  0.21891736  0.40177774  0.37114187    -0.02600
H602        H  0.17777786  0.34284257  0.38741433     0.09600
H603        H  0.18634366  0.32633858  0.28745085     0.07600
Br604      Br  0.14630491  0.26619368  0.30357766    -0.03000
C605        C  0.32206953  0.29766716  0.17406381    -0.09700
C606        C  0.34507596  0.30952861  0.15945631     0.06500
C607        C  0.35482620  0.34975826  0.16308504    -0.03400
C608        C  0.34058033  0.37718712  0.17929752    -0.07900
C609        C  0.31666509  0.36600144  0.19243224     0.05600
C610        C  0.30787580  0.32505438  0.19031737    -0.02900
Br611      Br  0.27609815  0.30385052  0.20752581    -0.02600
H612        H  0.31465398  0.26671719  0.17246930     0.09600
H613        H  0.34812444  0.40803399  0.18118852     0.07600
Br614      Br  0.38612683  0.37190225  0.14583563    -0.03000
C615        C  0.19048876  0.67216954  0.18948847    -0.09700
C616        C  0.18168875  0.63153873  0.19150639     0.06500
C617        C  0.15649487  0.62147094  0.18051184    -0.03400
C618        C  0.14195333  0.65069194  0.16628239    -0.07900
C619        C  0.15162029  0.69072582  0.16219400     0.05600
C620        C  0.17548553  0.70175876  0.17586226    -0.02900
Br621      Br  0.18816908  0.75687499  0.17881607    -0.02600
H622        H  0.20910094  0.68129430  0.19887343     0.09600
H623        H  0.12233984  0.64176018  0.15949557     0.07600
Br624      Br  0.13924116  0.56949696  0.18566918    -0.03000
C625        C  0.30277201  0.68467739  0.19735383    -0.09700
C626        C  0.30448350  0.64489529  0.18673469     0.06500
C627        C  0.31859567  0.63935644  0.16191625    -0.03400
C628        C  0.33157073  0.67232576  0.14945067    -0.07900
C629        C  0.33121771  0.71131673  0.16097139     0.05600
C630        C  0.31570287  0.71766057  0.18470777    -0.02900
Br631      Br  0.30977066  0.77071544  0.19999525    -0.01400
H632        H  0.29149011  0.69034470  0.21583707     0.09600
H633        H  0.34271813  0.66699030  0.13085790     0.07600
Br634      Br  0.32090243  0.58839459  0.14294872    -0.03000
C635        C  0.32179674  0.37612488  0.34345486    -0.09700
C636        C  0.31974316  0.37198644  0.31510621     0.06500
C637        C  0.33183541  0.33820283  0.30229365    -0.03400
C638        C  0.34581631  0.30967861  0.31785728    -0.07900
C639        C  0.34712076  0.31338419  0.34620632     0.05600
C640        C  0.33476416  0.34672684  0.35906197    -0.02900
Br641      Br  0.33387981  0.35244404  0.39795741    -0.02600
H642        H  0.31227385  0.40148598  0.35365918     0.09600
H643        H  0.35480177  0.28362918  0.30792652     0.07600
Br644      Br  0.33005087  0.32934395  0.26377963    -0.03000
C645        C  0.18435493  0.67497661  0.30601317    -0.09700
C646        C  0.18549906  0.63502539  0.31639848     0.06500
C647        C  0.17251144  0.62685853  0.34146899    -0.03400
C648        C  0.15678284  0.65661534  0.35366603    -0.07900
C649        C  0.15288737  0.69509795  0.34164961     0.05600
C650        C  0.16915328  0.70520937  0.31890774    -0.02900
Br651      Br  0.17383543  0.75999380  0.30587386    -0.02600
H652        H  0.19564804  0.68310026  0.28791718     0.09600
H653        H  0.14833381  0.64942986  0.37337226     0.07600
Br654      Br  0.17639905  0.57732262  0.36199078    -0.03000
C655        C  0.18135234  0.32878384  0.19993088    -0.09700
C656        C  0.19846254  0.35800563  0.18828516     0.06500
C657        C  0.20105844  0.35993511  0.15975607    -0.03400
C658        C  0.18482946  0.33561653  0.14338332    -0.07900
C659        C  0.16548810  0.30959209  0.15492212     0.05600
C660        C  0.16476255  0.30471387  0.18345391    -0.02900
Br661      Br  0.13938427  0.26982902  0.20119984    -0.02600
H662        H  0.17926545  0.32703984  0.22186723     0.09600
H663        H  0.18592995  0.33926252  0.12147093     0.07600
Br664      Br  0.22524658  0.39737615  0.14218724    -0.03000
O665        O  0.20685560  0.42952231  0.81163481    -0.75800
O666        O  0.22942222  0.38273706  0.78608064    -0.54700
C667        C  0.21329224  0.39278509  0.80536074     0.77900
O668        O  0.19394691  0.56021724  0.70105830    -0.60400
O669        O  0.21651275  0.61183576  0.72168840    -0.53400
C670        C  0.19816551  0.59828986  0.70574311     0.69900
O671        O  0.20463502  0.42399368  0.70132800    -0.75000
O672        O  0.22910767  0.37892075  0.72613665    -0.55500
C673        C  0.21236861  0.38779611  0.70731608     0.75900
O674        O  0.19952395  0.56618087  0.80739418    -0.60100
O675        O  0.21938574  0.61533686  0.78156155    -0.53200
C676        C  0.20312559  0.60360178  0.80047928     0.72500
Zr677      Zr  0.21578876  0.49861977  0.79554453     2.54700
O678        O  0.16735123  0.49337481  0.79874617    -0.80700
O679        O  0.22131951  0.50198733  0.84470564    -0.94100
Zr680      Zr  0.21178136  0.49428567  0.71511477     2.64700
O681        O  0.16425239  0.48244902  0.72209694    -0.99000
O682        O  0.20679047  0.49473374  0.66589106    -0.81100
O683        O  0.21462452  0.45669542  0.75624400    -0.84500
O684        O  0.21119576  0.53570538  0.75440721    -2.19200
O685        O  0.30392879  0.57852783  0.80238968    -0.67800
O686        O  0.27705940  0.62202532  0.77885404    -0.52400
C687        C  0.29556207  0.61431254  0.79606520     0.70900
O688        O  0.30708523  0.43526152  0.69892497    -0.60800
O689        O  0.28666692  0.38691528  0.72499783    -0.52700
C690        C  0.30300144  0.39797439  0.70619663     0.72700
O691        O  0.30114916  0.57228926  0.69539895    -0.72200
O692        O  0.27597277  0.61854725  0.71824535    -0.50800
C693        C  0.29376439  0.60902097  0.70027155     0.74100
O694        O  0.31134448  0.44122415  0.80465777    -0.67500
O695        O  0.28927746  0.38952539  0.78314285    -0.54700
C696        C  0.30703726  0.40325645  0.79961890     0.72500
Zr697      Zr  0.29434473  0.50766033  0.79082763     2.77500
O698        O  0.34274759  0.51434886  0.78786961    -0.98200
O699        O  0.29468687  0.50965204  0.84034604    -0.79000
Zr700      Zr  0.29066190  0.50312077  0.71038365     2.70100
O701        O  0.33896848  0.50853268  0.70552077    -0.80300
O702        O  0.28411459  0.49877080  0.66141646    -0.99400
Zr703      Zr  0.25648440  0.42265571  0.75470156     2.21500
Zr704      Zr  0.24925633  0.57925206  0.75071975     2.11100
O705        O  0.29120089  0.54490878  0.74965287    -2.48100
O706        O  0.29488992  0.46584223  0.75150751    -0.80100
O707        O  0.25318146  0.54291610  0.79255945    -0.72300
O708        O  0.25308085  0.45946547  0.71298869    -2.33200
O709        O  0.25693618  0.46354371  0.79471262    -2.29500
O710        O  0.24934387  0.53822587  0.71079864    -0.74000
H711        H  0.19487253  0.55117921  0.75492141     0.78000
H712        H  0.25355379  0.44151189  0.69750137     0.79000
H713        H  0.30589842  0.56417848  0.74845815     0.81300
H714        H  0.25857833  0.44689260  0.81079997     0.78900
H715        H  0.22372585  0.50664403  0.65898157     0.41900
H716        H  0.27568444  0.52490447  0.65638257     0.40900
H717        H  0.34564290  0.50920469  0.72444182     0.40600
H718        H  0.34590457  0.53748097  0.77529693     0.38500
H719        H  0.27911513  0.52662114  0.84529207     0.41600
H720        H  0.23546763  0.48202959  0.84883095     0.36400
H721        H  0.16256823  0.47114070  0.78604939     0.42500
H722        H  0.15758079  0.50780053  0.73056977     0.38900
H723        H  0.34811922  0.52483032  0.80593080     0.43900
H724        H  0.20479317  0.48958139  0.85225124     0.42600
H725        H  0.15667824  0.48238832  0.70353569     0.42700
H726        H  0.30234042  0.50040575  0.65357710     0.43100
O727        O  0.43730016  0.44973219  0.94760041    -0.75800
O728        O  0.46299678  0.40480104  0.97083569    -0.54700
C729        C  0.44503054  0.41343707  0.95310363     0.77900
O730        O  0.03512704  0.59554152  0.94236174    -0.60400
O731        O  0.01334604  0.64209875  0.96890604    -0.53400
C732        C  0.02927638  0.63222585  0.94946938     0.69900
O733        O  0.04072756  0.45708120  0.94399697    -0.75000
O734        O  0.01878741  0.40803197  0.96861846    -0.55500
C735        C  0.03560723  0.41969892  0.95033830     0.75900
O736        O  0.43125651  0.58586698  0.94806366    -0.60100
O737        O  0.45444724  0.63548856  0.96998131    -0.53200
C738        C  0.43669761  0.62354211  0.95296294     0.72500
Zr739      Zr  0.44721480  0.51893057  0.96208908     2.54700
O740        O  0.44392051  0.51998042  0.91263445    -0.80700
O741        O  0.39902817  0.51358600  0.96837229    -0.94100
Zr742      Zr  0.02527053  0.52553146  0.95616432     2.64700
O743        O  0.01748885  0.52058544  0.90740602    -0.99000
O744        O  0.07338384  0.53085790  0.94957220    -0.81100
O745        O  0.48777925  0.48195736  0.95930032    -0.84500
O746        O  0.48534188  0.56160130  0.95820319    -2.19200
O747        O  0.43452128  0.58169844  0.55335202    -0.67800
O748        O  0.45499879  0.63152995  0.52825178    -0.52400
C749        C  0.43840411  0.61914613  0.54659599     0.70900
O750        O  0.04702781  0.45725773  0.55079908    -0.60800
O751        O  0.02556924  0.40585546  0.52896571    -0.52700
C752        C  0.04358007  0.41934027  0.54544120     0.72700
O753        O  0.03976246  0.59389757  0.55126457    -0.72200
O754        O  0.01445892  0.63923008  0.52748641    -0.50800
C755        C  0.03232798  0.63020279  0.54510518     0.74100
O756        O  0.43938288  0.44479418  0.55417435    -0.67500
O757        O  0.46540498  0.39877085  0.53159317    -0.54700
C758        C  0.44706084  0.40826954  0.54885858     0.72500
Zr759      Zr  0.45081814  0.51445441  0.54093134     2.77500
O760        O  0.45560627  0.51836889  0.59013298    -0.98200
O761        O  0.40239946  0.51069944  0.54463584    -0.79000
Zr762      Zr  0.03018123  0.52380137  0.53788679     2.70100
O763        O  0.03421087  0.52338582  0.58722582    -0.80300
O764        O  0.07813006  0.53167017  0.53108121    -0.99400
Zr765      Zr  0.49224292  0.43907687  0.50026997     2.21500
Zr766      Zr  0.48675386  0.59627930  0.49932306     2.11100
O767        O  0.48879811  0.55740676  0.54026815    -2.48100
O768        O  0.49166614  0.47811613  0.54115543    -0.80100
O769        O  0.44788610  0.55417544  0.50066005    -0.72300
O770        O  0.03024649  0.48301594  0.49815374    -2.33200
O771        O  0.45074575  0.47486928  0.50067992    -2.29500
O772        O  0.02732277  0.56211614  0.49720510    -0.74000
H773        H  0.48393547  0.57876191  0.94232793     0.78000
H774        H  0.04639201  0.46723432  0.49733222     0.79000
H775        H  0.48813148  0.57475051  0.55612460     0.81300
H776        H  0.43574425  0.45607388  0.50099524     0.78900
H777        H  0.07937745  0.55007839  0.96382076     0.41900
H778        H  0.07991921  0.55319594  0.51706368     0.40900
H779        H  0.01982315  0.50478106  0.59353219     0.40600
H780        H  0.43728094  0.52332577  0.59699947     0.38500
H781        H  0.39594319  0.52183151  0.52714869     0.41600
H782        H  0.39616939  0.48771022  0.97836126     0.36400
H783        H  0.45470519  0.54378180  0.90673308     0.42500
H784        H  0.00359281  0.54106996  0.90359882     0.38900
H785        H  0.45967607  0.49021156  0.59593468     0.43900
H786        H  0.39206242  0.50815760  0.94990431     0.42600
H787        H  0.03391450  0.53190806  0.89893151     0.42700
H788        H  0.08454033  0.54470502  0.54801244     0.43100
C789        C  0.35792324  0.22632975  0.89594045     0.86000
C790        C  0.37649117  0.25278623  0.91363852    -0.54300
C791        C  0.39375769  0.27714403  0.89910014     0.08900
C792        C  0.39034866  0.27355781  0.86798842     0.19900
C793        C  0.34378740  0.25832275  0.87815000    -0.55000
C794        C  0.36066400  0.28267760  0.86360733     0.09000
C795        C  0.37640175  0.20360189  0.87625117    -0.54500
C796        C  0.39324985  0.22803174  0.86167930     0.09600
H797        H  0.37448721  0.25467814  0.93561024     0.14100
H798        H  0.40401112  0.29337823  0.85589070    -0.00200
H799        H  0.32249958  0.26388908  0.87796058     0.14400
H800        H  0.37593683  0.17073322  0.87374637     0.14200
O801        O  0.29470297  0.06864498  0.94406952    -0.75800
O802        O  0.27135888  0.11810202  0.96651649    -0.54700
C803        C  0.28945043  0.10594964  0.94965781     0.77900
O804        O  0.18125220  0.94046120  0.94907192    -0.60400
O805        O  0.20586441  0.89182438  0.96995414    -0.53400
C806        C  0.18721433  0.90292996  0.95386566     0.69900
O807        O  0.18646667  0.07921176  0.94801977    -0.75000
O808        O  0.21173775  0.12453825  0.97177104    -0.55500
C809        C  0.19343168  0.11588507  0.95452218     0.75900
O810        O  0.28919986  0.93308276  0.94481478    -0.60100
O811        O  0.26446790  0.88688255  0.96899944    -0.53200
C812        C  0.28245463  0.89648110  0.95131730     0.72500
Zr813      Zr  0.27681805  0.00249316  0.95686261     2.54700
O814        O  0.27106403  0.00268496  0.90772822    -0.80700
O815        O  0.32504439  0.99443651  0.95331691    -0.94100
Zr816      Zr  0.19744720  0.00880037  0.96076009     2.64700
O817        O  0.19396316  0.00886354  0.91135640    -0.99000
O818        O  0.14924259  0.01408550  0.96651846    -0.81100
O819        O  0.23854060  0.04512032  0.95780968    -0.84500
O820        O  0.23579982  0.96644183  0.95785335    -2.19200
O821        O  0.29528819  0.92923010  0.54651162    -0.67800
O822        O  0.26697331  0.88252508  0.52763131    -0.52400
C823        C  0.28732548  0.89241573  0.54214350     0.70900
O824        O  0.19264629  0.07397149  0.55619842    -0.60800
O825        O  0.21609793  0.11921326  0.53010453    -0.52700
C826        C  0.19944448  0.11055857  0.54937465     0.72700
O827        O  0.18735003  0.93545807  0.55567399    -0.72200
O828        O  0.20713943  0.88706846  0.52944338    -0.50800
C829        C  0.19122472  0.89806006  0.54859459     0.74100
O830        O  0.29421890  0.06793952  0.55160748    -0.67500
O831        O  0.27298162  0.11629951  0.52639394    -0.54700
C832        C  0.28948879  0.10517376  0.54480069     0.72500
Zr833      Zr  0.28165350  0.99909562  0.53663212     2.77500
O834        O  0.28567946  0.99286068  0.58578040    -0.98200
O835        O  0.32985463  0.00268297  0.53020486    -0.79000
Zr836      Zr  0.20274149  0.00384335  0.54236000     2.70100
O837        O  0.20859062  0.00195770  0.59152082    -0.80300
O838        O  0.15438537  0.00919132  0.54614222    -0.99400
Zr839      Zr  0.24222890  0.07908323  0.49822304     2.21500
Zr840      Zr  0.23737467  0.92293802  0.49931529     2.11100
O841        O  0.24106802  0.96178346  0.54023215    -2.48100
O842        O  0.24340825  0.04104682  0.53958654    -0.80100
O843        O  0.27846980  0.95919431  0.49659506    -0.72300
O844        O  0.20085991  0.04320680  0.50185339    -2.33200
O845        O  0.28108760  0.03766949  0.49603152    -2.29500
O846        O  0.19850601  0.96449880  0.50209540    -0.74000
H847        H  0.23468798  0.94891113  0.94211295     0.78000
H848        H  0.18602515  0.06174372  0.50290224     0.79000
H849        H  0.24156525  0.94422038  0.55598061     0.81300
H850        H  0.29720073  0.05403847  0.49530806     0.78900
H851        H  0.14519701  0.99793827  0.98307795     0.41900
H852        H  0.14742437  0.98947633  0.53265696     0.40900
H853        H  0.22042269  0.02542491  0.59551253     0.40600
H854        H  0.30331303  0.00503459  0.58996601     0.38500
H855        H  0.33343705  0.98457894  0.51451526     0.41600
H856        H  0.33272173  0.01899980  0.96200440     0.36400
H857        H  0.25784064  0.02439216  0.90435696     0.42500
H858        H  0.20478058  0.98535853  0.90534184     0.38900
H859        H  0.27257316  0.01247763  0.59318397     0.43900
H860        H  0.32908917  0.99772939  0.93368001     0.42600
H861        H  0.17526303  0.00059281  0.90774895     0.42700
H862        H  0.14993164  0.99698266  0.56404702     0.43100
C863        C  0.13522718  0.72588869  0.85402480     0.86000
C864        C  0.11771614  0.75258779  0.83548841    -0.54300
C865        C  0.10170936  0.77946604  0.84927889     0.08900
C866        C  0.10427061  0.77667605  0.88051713     0.19900
C867        C  0.15028816  0.75596846  0.87228857    -0.55000
C868        C  0.13431198  0.78268849  0.88606334     0.09000
C869        C  0.11442112  0.70551612  0.87280615    -0.54500
C870        C  0.09867953  0.73166520  0.88685946     0.09600
H871        H  0.11766169  0.75045883  0.81346352     0.14100
H872        H  0.09121121  0.79791711  0.89197160    -0.00200
H873        H  0.17189617  0.75605358  0.87416491     0.14400
H874        H  0.11069414  0.67297667  0.87378136     0.14200
O875        O  0.45294971  0.08790359  0.69135058    -0.75800
O876        O  0.47500802  0.13571066  0.71654229    -0.54700
C877        C  0.45862006  0.12496258  0.69777742     0.77900
O878        O  0.44459579  0.95598959  0.80068785    -0.60400
O879        O  0.46881967  0.90602177  0.77983202    -0.53400
C880        C  0.45041013  0.91857205  0.79600150     0.69900
O881        O  0.44855763  0.09272726  0.79767691    -0.75000
O882        O  0.47589262  0.13804173  0.77559522    -0.55500
C883        C  0.45661459  0.12903918  0.79201558     0.75900
O884        O  0.44899535  0.95021997  0.69365515    -0.60100
O885        O  0.46914024  0.90285165  0.72038027    -0.53200
C886        C  0.45292595  0.91326852  0.70151698     0.72500
Zr887      Zr  0.46365267  0.01886174  0.70600458     2.54700
O888        O  0.41505351  0.02091292  0.70541726    -0.80700
O889        O  0.46709196  0.01452192  0.65666391    -0.94100
Zr890      Zr  0.46066160  0.02289658  0.78672531     2.64700
O891        O  0.41221044  0.02773210  0.78366967    -0.99000
O892        O  0.45922277  0.02362835  0.83629387    -0.81100
O893        O  0.46262028  0.06036275  0.74549457    -0.84500
O894        O  0.46019309  0.98164112  0.74718912    -2.19200
O895        O  0.05283669  0.94216017  0.69498106    -0.67800
O896        O  0.02650282  0.89801496  0.71929809    -0.52400
C897        C  0.04463635  0.90606426  0.70142732     0.70900
O898        O  0.05926098  0.08621688  0.79849451    -0.60800
O899        O  0.03792105  0.13377464  0.77302858    -0.52700
C900        C  0.05490478  0.12335129  0.79118880     0.72700
O901        O  0.05297764  0.94807570  0.80285131    -0.72200
O902        O  0.02688498  0.90163398  0.78055072    -0.50800
C903        C  0.04519238  0.91138341  0.79760360     0.74100
O904        O  0.05952034  0.08038146  0.69250104    -0.67500
O905        O  0.03615968  0.13028504  0.71399967    -0.54700
C906        C  0.05394127  0.11809671  0.69686413     0.72500
Zr907      Zr  0.04348197  0.01318365  0.70726175     2.77500
O908        O  0.09201640  0.00862665  0.70886222    -0.98200
O909        O  0.04250774  0.01111934  0.65774567    -0.79000
Zr910      Zr  0.04260013  0.01765807  0.78801630     2.70100
O911        O  0.09114371  0.01388290  0.78745119    -0.80300
O912        O  0.03998240  0.02358011  0.83739345    -0.99400
Zr913      Zr  0.00596317  0.09692046  0.74564341     2.21500
Zr914      Zr  0.49921806  0.94067901  0.74923648     2.11100
O915        O  0.04197192  0.97584731  0.74860132    -2.48100
O916        O  0.04469201  0.05493674  0.74667784    -0.80100
O917        O  0.50203644  0.97715015  0.70749364    -0.72300
O918        O  0.00453438  0.06038075  0.78756606    -2.33200
O919        O  0.00542194  0.05591694  0.70553238    -2.29500
O920        O  0.49894923  0.98070466  0.78966149    -0.74000
H921        H  0.44421844  0.96513265  0.74703710     0.78000
H922        H  0.00511410  0.07864624  0.80289788     0.79000
H923        H  0.05662830  0.95695471  0.74906973     0.81300
H924        H  0.00621112  0.07255284  0.68938736     0.78900
H925        H  0.47260627  0.04438779  0.84161857     0.41900
H926        H  0.03560749  0.99582514  0.84397370     0.40900
H927        H  0.09688360  0.03538130  0.77449915     0.40600
H928        H  0.09568919  0.98167484  0.71703742     0.38500
H929        H  0.02785294  0.99187496  0.65342056     0.41600
H930        H  0.48215529  0.03275998  0.65176055     0.36400
H931        H  0.41035933  0.04514745  0.71639020     0.42500
H932        H  0.40724693  0.00921755  0.76861482     0.38900
H933        H  0.09760374  0.00585269  0.68958693     0.43900
H934        H  0.45102913  0.02864756  0.64988108     0.42600
H935        H  0.40533872  0.01409270  0.80029517     0.42700
H936        H  0.05865634  0.02829164  0.84316983     0.43100
C937        C  0.38540331  0.79507875  0.64509189     0.86000
C938        C  0.36740951  0.76613270  0.66212471    -0.54300
C939        C  0.35175190  0.74070034  0.64677970     0.08900
C940        C  0.35571448  0.74610519  0.61584336     0.19900
C941        C  0.40127055  0.76657483  0.62651314    -0.55000
C942        C  0.38591690  0.74083251  0.61154502     0.09000
C943        C  0.36543841  0.81679717  0.62660018    -0.54500
C944        C  0.35049460  0.79156711  0.61072680     0.09600
H945        H  0.36693729  0.76490873  0.68413256     0.14100
H946        H  0.34339275  0.72532481  0.60318509    -0.00200
H947        H  0.42296578  0.76589449  0.62590025     0.14400
H948        H  0.36370493  0.84971630  0.62552364     0.14200
C949        C  0.11146655  0.30216566  0.60431092     0.86000
C950        C  0.12775207  0.27227993  0.58668058    -0.54300
C951        C  0.14267890  0.24483435  0.60112454     0.08900
C952        C  0.13916083  0.24916502  0.63223703     0.19900
C953        C  0.09451801  0.27502335  0.62316328    -0.55000
C954        C  0.10871989  0.24679389  0.63723647     0.09000
C955        C  0.13226030  0.32100562  0.62381870    -0.54500
C956        C  0.14682131  0.29352737  0.63815333     0.09600
H957        H  0.12668034  0.27224908  0.56464175     0.14100
H958        H  0.15081841  0.22723539  0.64447199    -0.00200
H959        H  0.07291001  0.27692012  0.62457569     0.14400
H960        H  0.13549372  0.35310964  0.62729937     0.14200
C961        C  0.35298887  0.22626607  0.60310893     0.86000
C962        C  0.33890845  0.25546385  0.62287537    -0.54300
C963        C  0.35579210  0.27938364  0.63799720     0.08900
C964        C  0.38553350  0.27190095  0.63178809     0.19900
C965        C  0.37123005  0.25457714  0.58595396    -0.55000
C966        C  0.38787842  0.27855955  0.60090224     0.09000
C967        C  0.37265240  0.20241787  0.62061858    -0.54500
C968        C  0.38940054  0.22596293  0.63576202     0.09600
H969        H  0.31730654  0.25732831  0.62448864     0.14100
H970        H  0.39962991  0.29043130  0.64398359    -0.00200
H971        H  0.37104564  0.25772887  0.56407955     0.14400
H972        H  0.37352616  0.16936064  0.62077442     0.14200
C973        C  0.13391209  0.71852687  0.64591482     0.86000
C974        C  0.14992559  0.74734405  0.62706282    -0.54300
C975        C  0.13489746  0.77577266  0.61356968     0.08900
C976        C  0.10466602  0.77111077  0.61924781     0.19900
C977        C  0.11736390  0.74668730  0.66424296    -0.55000
C978        C  0.10216705  0.77418985  0.65047197     0.09000
C979        C  0.11354463  0.69923793  0.62626532    -0.54500
C980        C  0.09832074  0.72648803  0.61254682     0.09600
H981        H  0.17139648  0.74533095  0.62454644     0.14100
H982        H  0.09185865  0.79251775  0.60784736    -0.00200
H983        H  0.11809289  0.74559189  0.68632582     0.14400
H984        H  0.11174220  0.66691980  0.62215881     0.14200
C985        C  0.10146076  0.29790199  0.89520284     0.86000
C986        C  0.08845028  0.26806659  0.87474828    -0.54300
C987        C  0.10596598  0.24275452  0.86130063     0.08900
C988        C  0.13515232  0.24952433  0.87031315     0.19900
C989        C  0.11684793  0.26964311  0.91442262    -0.55000
C990        C  0.13434215  0.24439756  0.90147786     0.09000
C991        C  0.12281226  0.31992689  0.87813843    -0.54500
C992        C  0.14061278  0.29492798  0.86567832     0.09600
H993        H  0.06725362  0.26598324  0.87121042     0.14100
H994        H  0.15034393  0.23080216  0.85996737    -0.00200
H995        H  0.11365892  0.26890215  0.93630852     0.14400
H996        H  0.12404709  0.35286998  0.87634708     0.14200
C997        C  0.38488755  0.79895383  0.85267392     0.86000
C998        C  0.39929683  0.76616533  0.86930874    -0.54300
C999        C  0.38283208  0.74115250  0.88423682     0.08900
C1000       C  0.35293015  0.74989598  0.87967984     0.19900
C1001       C  0.36631713  0.77357442  0.83447383    -0.55000
C1002       C  0.35001173  0.74736652  0.84843815     0.09000
C1003       C  0.36640839  0.82054075  0.87267711    -0.54500
C1004       C  0.34966413  0.79535542  0.88672681     0.09600
H1005       H  0.42078552  0.76221106  0.86885985     0.14100
H1006       H  0.33909369  0.72988736  0.89133978    -0.00200
H1007       H  0.36756781  0.77334642  0.81240249     0.14400
H1008       H  0.36650949  0.85336313  0.87550715     0.14200
C1009       C  0.09408869  0.14613017  0.81849145    -0.09700
C1010       C  0.07012901  0.15610559  0.80539441     0.06500
C1011       C  0.06070315  0.19647440  0.80773233    -0.03400
C1012       C  0.07391703  0.22415073  0.82458911    -0.07900
C1013       C  0.09640257  0.21312228  0.83999650     0.05600
C1014       C  0.10740886  0.17390982  0.83537079    -0.02900
Br1015     Br  0.13958237  0.15360312  0.85132535    -0.02600
H1016       H  0.10231944  0.11588575  0.81610426     0.09600
H1017       H  0.06595123  0.25465059  0.82604415     0.07600
Br1018     Br  0.02896647  0.21625284  0.79037358    -0.03000
C1019       C  0.09690090  0.17404596  0.64375191    -0.09700
C1020       C  0.09534873  0.21419254  0.65311685     0.06500
C1021       C  0.07959836  0.22274184  0.67615052    -0.03400
C1022       C  0.06671147  0.19102215  0.69005980    -0.07900
C1023       C  0.06873700  0.15023163  0.68127606     0.05600
C1024       C  0.08411276  0.14206573  0.65754889    -0.02900
Br1025     Br  0.08814286  0.08893399  0.64167525    -0.02600
H1026       H  0.10732150  0.16762601  0.62493927     0.09600
H1027       H  0.05498390  0.19859769  0.70792651     0.07600
Br1028     Br  0.07485961  0.27721817  0.68940296    -0.03000
C1029       C  0.39358172  0.84818626  0.81391710    -0.09700
C1030       C  0.40299448  0.82930148  0.83781432     0.06500
C1031       C  0.42712395  0.84447793  0.84922839    -0.03400
C1032       C  0.44328418  0.87118398  0.83423364    -0.07900
C1033       C  0.43423051  0.88779913  0.80986406     0.05600
C1034       C  0.40865866  0.87792793  0.80045464    -0.02900
Br1035     Br  0.39294050  0.90652435  0.77046632    -0.02600
H1036       H  0.37383523  0.84148528  0.80627653     0.09600
H1037       H  0.46210428  0.88151034  0.84263792     0.07600
Br1038     Br  0.43710342  0.83743210  0.88668153    -0.03000
C1039       C  0.05929938  0.80963361  0.66099217    -0.09700
C1040       C  0.08703231  0.80674945  0.66448253     0.06500
C1041       C  0.10032826  0.83643811  0.68018129    -0.03400
C1042       C  0.08601603  0.86851271  0.69168610    -0.07900
C1043       C  0.05834650  0.87141282  0.68843419     0.05600
C1044       C  0.04482157  0.84139754  0.67314872    -0.02900
Br1045     Br  0.00705178  0.84362961  0.66707564    -0.02600
H1046       H  0.04893255  0.78719501  0.64875328     0.09600
H1047       H  0.09660282  0.89144057  0.70331884     0.07600
Br1048     Br  0.13836336  0.83703106  0.68460021    -0.03000
C1049       C  0.43299432  0.88477640  0.65963946    -0.09700
C1050       C  0.43756357  0.88084725  0.68759813     0.06500
C1051       C  0.42718004  0.84635479  0.70129235    -0.03400
C1052       C  0.41003263  0.81952707  0.68770595    -0.07900
C1053       C  0.40408482  0.82460696  0.65991632     0.05600
C1054       C  0.41763341  0.85623475  0.64555877    -0.02900
Br1055     Br  0.41752353  0.86171179  0.60651360    -0.02600
H1056       H  0.44215913  0.90967775  0.64842659     0.09600
H1057       H  0.40243170  0.79379847  0.69903331     0.07600
Br1058     Br  0.43587750  0.83298561  0.73822563    -0.03000
C1059       C  0.42850289  0.18137222  0.63886286    -0.09700
C1060       C  0.41064513  0.20733024  0.65220652     0.06500
C1061       C  0.41139145  0.21048529  0.68080886    -0.03400
C1062       C  0.42860925  0.18528258  0.69562597    -0.07900
C1063       C  0.44495039  0.15692434  0.68217012     0.05600
C1064       C  0.44552568  0.15632076  0.65352635    -0.02900
Br1065     Br  0.46881851  0.12125561  0.63329824    -0.02600
H1066       H  0.42838059  0.17933438  0.61684281     0.09600
H1067       H  0.42808985  0.18614345  0.71766253     0.07600
Br1068     Br  0.38772271  0.24562118  0.70056721    -0.03000
C1069       C  0.09938296  0.83748228  0.81708014    -0.09700
C1070       C  0.08592383  0.81131067  0.83521460     0.06500
C1071       C  0.05861323  0.81822896  0.84084496    -0.03400
C1072       C  0.04540348  0.85077131  0.82830176    -0.07900
C1073       C  0.05929855  0.87770412  0.81104993     0.05600
C1074       C  0.08651322  0.87095399  0.80560705    -0.02900
Br1075     Br  0.10692410  0.90661843  0.78243949    -0.02600
H1076       H  0.12041558  0.83297811  0.81281570     0.09600
H1077       H  0.02433687  0.85543522  0.83232950     0.07600
Br1078     Br  0.03806467  0.78371484  0.86453789    -0.03000
C1079       C  0.30368540  0.13859707  0.58766382    -0.09700
C1080       C  0.30408667  0.13762866  0.55920475     0.06500
C1081       C  0.31827261  0.16796074  0.54495647    -0.03400
C1082       C  0.33271225  0.19744860  0.55910908    -0.07900
C1083       C  0.33381434  0.19766104  0.58782323     0.05600
C1084       C  0.31789091  0.16843665  0.60201445    -0.02900
Br1085     Br  0.31473881  0.16647471  0.64102418    -0.02600
H1086       H  0.29217084  0.11599578  0.59882241     0.09600
H1087       H  0.34330679  0.21930853  0.54683435     0.07600
Br1088     Br  0.32059118  0.16899779  0.50600762    -0.03000
C1089       C  0.18661463  0.18414690  0.55161940    -0.09700
C1090       C  0.18666036  0.14538638  0.56397238     0.06500
C1091       C  0.17452591  0.14133928  0.58991609    -0.03400
C1092       C  0.16082709  0.17409002  0.60143427    -0.07900
C1093       C  0.15926423  0.21204056  0.58834846     0.05600
C1094       C  0.17383969  0.21744228  0.56383822    -0.02900
Br1095     Br  0.18019115  0.26994187  0.54769828    -0.02600
H1096       H  0.19685594  0.18891148  0.53238346     0.09600
H1097       H  0.15155090  0.16939217  0.62104739     0.07600
Br1098     Br  0.17723040  0.09348936  0.61220839    -0.03000
C1099       C  0.16948229  0.79575712  0.57919162    -0.09700
C1100       C  0.14735312  0.80709021  0.59518423     0.06500
C1101       C  0.13921654  0.84832299  0.59445108    -0.03400
C1102       C  0.15340940  0.87666569  0.57866970    -0.07900
C1103       C  0.17616802  0.86565670  0.56360375     0.05600
C1104       C  0.18407307  0.82427955  0.56392682    -0.02900
Br1105     Br  0.21561858  0.80411232  0.54607978    -0.02600
H1106       H  0.17597823  0.76435911  0.57896930     0.09600
H1107       H  0.14680011  0.90802366  0.57872457     0.07600
Br1108     Br  0.11067795  0.87043603  0.61580693    -0.03000
C1109       C  0.30382088  0.81697931  0.89990033    -0.09700
C1110       C  0.33076433  0.81230008  0.90693020     0.06500
C1111       C  0.34048453  0.83150931  0.93052894    -0.03400
C1112       C  0.32382723  0.85697377  0.94571060    -0.07900
C1113       C  0.29736955  0.86360675  0.93783147     0.05600
C1114       C  0.28707643  0.84252287  0.91520432    -0.02900
Br1115     Br  0.25112285  0.85064196  0.90316825    -0.02600
H1116       H  0.29629514  0.80295047  0.88150491     0.09600
H1117       H  0.33191221  0.87312374  0.96305531     0.07600
Br1118     Br  0.37695088  0.82601287  0.94170758    -0.03000
C1119       C  0.15255449  0.14296774  0.93250254    -0.09700
C1120       C  0.17872958  0.15019902  0.94166109     0.06500
C1121       C  0.18953360  0.19011674  0.93885798    -0.03400
C1122       C  0.17491496  0.22031091  0.92541572    -0.07900
C1123       C  0.14911931  0.21233797  0.91596097     0.05600
C1124       C  0.13755119  0.17385591  0.92053614    -0.02900
Br1125     Br  0.10102018  0.16231295  0.91150772    -0.02600
H1126       H  0.14333231  0.11333839  0.93530223     0.09600
H1127       H  0.18357605  0.25035646  0.92262474     0.07600
Br1128     Br  0.22371946  0.20639688  0.95287874    -0.03000
C1129       C  0.29026374  0.83197791  0.57308211    -0.09700
C1130       C  0.30289825  0.85974076  0.55528439     0.06500
C1131       C  0.33093961  0.85907554  0.55282354    -0.03400
C1132       C  0.34589201  0.83365176  0.56952717    -0.07900
C1133       C  0.33349187  0.80861079  0.58900884     0.05600
C1134       C  0.30540682  0.80639027  0.58993504    -0.02900
Br1135     Br  0.28710311  0.77182134  0.61547661    -0.02600
H1136       H  0.26872395  0.83205069  0.57516348     0.09600
H1137       H  0.36749519  0.83504476  0.56833046     0.07600
Br1138     Br  0.35000504  0.89332106  0.52761203    -0.03000
C1139       C  0.15283983  0.88309419  0.91989817    -0.09700
C1140       C  0.17201637  0.87074405  0.93895632     0.06500
C1141       C  0.17683130  0.82835061  0.94188025    -0.03400
C1142       C  0.16381639  0.80048228  0.92488141    -0.07900
C1143       C  0.14554404  0.81333101  0.90516597     0.05600
C1144       C  0.13965818  0.85511691  0.90328870    -0.02900
Br1145     Br  0.11557897  0.87730697  0.87725012    -0.02600
H1146       H  0.14842153  0.91507966  0.91719099     0.09600
H1147       H  0.16814627  0.76833226  0.92695374     0.07600
Br1148     Br  0.20075909  0.80512044  0.96804971    -0.03000
C1149       C  0.40029855  0.19476897  0.81707755    -0.09700
C1150       C  0.41140237  0.21095200  0.84088632     0.06500
C1151       C  0.43862608  0.20463360  0.84635834    -0.03400
C1152       C  0.45402961  0.18069862  0.82868843    -0.07900
C1153       C  0.44238630  0.16220011  0.80589444     0.05600
C1154       C  0.41551592  0.17025766  0.79972868    -0.02900
Br1155     Br  0.39836092  0.14601647  0.76885558    -0.02600
H1156       H  0.37930691  0.19926596  0.81283250     0.09600
H1157       H  0.47455418  0.17403187  0.83385677     0.07600
Br1158     Br  0.45459917  0.22361642  0.87938292    -0.03000
C1159       C  0.31269419  0.19105110  0.90347690    -0.09700
C1160       C  0.33962040  0.19650454  0.91145105     0.06500
C1161       C  0.34976870  0.16948508  0.93146405    -0.03400
C1162       C  0.33305318  0.14027638  0.94353618    -0.07900
C1163       C  0.30618912  0.13691092  0.93628072     0.05600
C1164       C  0.29618257  0.16180002  0.91566612    -0.02900
Br1165     Br  0.26097810  0.15374866  0.90138386    -0.02600
H1166       H  0.30429392  0.20748779  0.88664288     0.09600
H1167       H  0.34108973  0.11996710  0.95880402     0.07600
Br1168     Br  0.38632918  0.16875692  0.94295356    -0.03000
C1169       C  0.05657395  0.34759259  0.55781037    -0.09700
C1170       C  0.06174592  0.38972903  0.55933824     0.06500
C1171       C  0.08450842  0.40253768  0.57421025    -0.03400
C1172       C  0.10052119  0.37409831  0.58730863    -0.07900
C1173       C  0.09458635  0.33214364  0.58741156     0.05600
C1174       C  0.07260255  0.31905530  0.57141303    -0.02900
Br1175     Br  0.06311198  0.26262770  0.56697030    -0.02600
H1176       H  0.03971055  0.33656635  0.54619751     0.09600
H1177       H  0.11803025  0.38613584  0.59695685     0.07600
Br1178     Br  0.09637831  0.45815623  0.57814008    -0.03000
C1179       C  0.06778063  0.68265950  0.54894618    -0.09700
C1180       C  0.04520333  0.66340251  0.56011554     0.06500
C1181       C  0.03783569  0.67128007  0.58724882    -0.03400
C1182       C  0.05422891  0.69561479  0.60352264    -0.07900
C1183       C  0.07798051  0.71232137  0.59303503     0.05600
C1184       C  0.08423448  0.70702617  0.56524415    -0.02900
Br1185     Br  0.11639409  0.72860110  0.54939614    -0.02600
H1186       H  0.07358118  0.67654999  0.52805957     0.09600
H1187       H  0.04935629  0.69929709  0.62489770     0.07600
Br1188     Br  0.00654324  0.64690733  0.60327141    -0.03000
C1189       C  0.39725207  0.71159195  0.56645005    -0.09700
C1190       C  0.39783243  0.70842949  0.59485576     0.06500
C1191       C  0.41099008  0.67545413  0.60710677    -0.03400
C1192       C  0.42343078  0.64628846  0.59085467    -0.07900
C1193       C  0.42363106  0.64989543  0.56238805     0.05600
C1194       C  0.41021459  0.68277929  0.55012296    -0.02900
Br1195     Br  0.40792640  0.68895965  0.51140283    -0.02600
H1196       H  0.38711323  0.73695732  0.55699515     0.09600
H1197       H  0.43366631  0.62120952  0.60055414     0.07600
Br1198     Br  0.41283977  0.66912273  0.64592151    -0.03000
C1199       C  0.06009792  0.69147295  0.94734341    -0.09700
C1200       C  0.04230714  0.66505657  0.93407005     0.06500
C1201       C  0.04007691  0.66658361  0.90560912    -0.03400
C1202       C  0.05723685  0.69156546  0.89063385    -0.07900
C1203       C  0.07655937  0.71559909  0.90364251     0.05600
C1204       C  0.07748090  0.71644199  0.93224657    -0.02900
Br1205     Br  0.10458125  0.74627419  0.95124157    -0.02600
H1206       H  0.06195917  0.69027481  0.96929463     0.09600
H1207       H  0.05652566  0.69057078  0.86859634     0.07600
Br1208     Br  0.01448771  0.63405886  0.88630773    -0.03000
C1209       C  0.41630868  0.72320330  0.91904480    -0.09700
C1210       C  0.39408153  0.71097408  0.90373024     0.06500
C1211       C  0.38495592  0.67037041  0.90626002    -0.03400
C1212       C  0.39858398  0.64313240  0.92312832    -0.07900
C1213       C  0.42169117  0.65493591  0.93741899     0.05600
C1214       C  0.43041786  0.69591688  0.93519265    -0.02900
Br1215     Br  0.46255303  0.71726244  0.95121145    -0.02600
H1216       H  0.42343122  0.75434739  0.91777538     0.09600
H1217       H  0.39136836  0.61202804  0.92440400     0.07600
Br1218     Br  0.35568042  0.64839408  0.88596571    -0.03000
C1219       C  0.07883458  0.38743689  0.94049779    -0.09700
C1220       C  0.05128046  0.38804266  0.93647791     0.06500
C1221       C  0.03949912  0.35852300  0.91965868    -0.03400
C1222       C  0.05546267  0.32928156  0.90678180    -0.07900
C1223       C  0.08348696  0.32841675  0.91040833     0.05600
C1224       C  0.09488070  0.35809573  0.92804715    -0.02900
Br1225     Br  0.13238267  0.36162875  0.93609189    -0.02600
H1226       H  0.08797351  0.40995113  0.95366257     0.09600
H1227       H  0.04531529  0.30782839  0.89391390     0.07600
Br1228     Br  0.00187928  0.35828484  0.91235553    -0.03000
C1229       C  0.43121937  0.31307888  0.59015988    -0.09700
C1230       C  0.40330296  0.31201897  0.58817674     0.06500
C1231       C  0.39003112  0.34336501  0.57415706    -0.03400
C1232       C  0.40475364  0.37443857  0.56171830    -0.07900
C1233       C  0.43270473  0.37498128  0.56287359     0.05600
C1234       C  0.44599918  0.34435733  0.57759915    -0.02900
Br1235     Br  0.48389674  0.34583297  0.58288809    -0.02600
H1236       H  0.44148111  0.28959306  0.60145706     0.09600
H1237       H  0.39429226  0.39832590  0.55099782     0.07600
Br1238     Br  0.35170504  0.34691100  0.57322480    -0.03000
C1239       C  0.43602612  0.33919777  0.94830929    -0.09700
C1240       C  0.43243616  0.37890730  0.93822076     0.06500
C1241       C  0.41730110  0.38393558  0.91413794    -0.03400
C1242       C  0.40675247  0.34987650  0.90096715    -0.07900
C1243       C  0.40922030  0.31068195  0.91189041     0.05600
C1244       C  0.42450684  0.30543717  0.93560970    -0.02900
Br1245     Br  0.43180657  0.25317361  0.95110744    -0.02600
H1246       H  0.44767092  0.33414661  0.96649406     0.09600
H1247       H  0.39541245  0.35448898  0.88255851     0.07600
Br1248     Br  0.40894955  0.43554271  0.89783728    -0.03000
C1249       C  0.33662965  0.65222289  0.80708862    -0.09700
C1250       C  0.30882526  0.64904320  0.80915925     0.06500
C1251       C  0.29445537  0.67877242  0.82373377    -0.03400
C1252       C  0.30818308  0.71035376  0.83683732    -0.07900
C1253       C  0.33600021  0.71375065  0.83450211     0.05600
C1254       C  0.35025104  0.68462203  0.81908946    -0.02900
Br1255     Br  0.38839354  0.68618938  0.81446034    -0.02600
H1256       H  0.34778094  0.62961413  0.79574191     0.09600
H1257       H  0.29711663  0.73264048  0.84852838     0.07600
Br1258     Br  0.25628079  0.67693172  0.82687042    -0.03000
C1259       C  0.18219580  0.33573500  0.86401255    -0.09700
C1260       C  0.16352404  0.31154559  0.85019161     0.06500
C1261       C  0.16490065  0.30868797  0.82163521    -0.03400
C1262       C  0.18322090  0.33288681  0.80720716    -0.07900
C1263       C  0.20003516  0.36015019  0.82095400     0.05600
C1264       C  0.20047695  0.35987259  0.84960662    -0.02900
Br1265     Br  0.22520061  0.39264797  0.86983036    -0.02600
H1266       H  0.18163220  0.33738232  0.88604474     0.09600
H1267       H  0.18284650  0.33276915  0.78515406     0.07600
Br1268     Br  0.14009335  0.27642311  0.80124123    -0.03000
C1269       C  0.32387378  0.29674119  0.67483238    -0.09700
C1270       C  0.34542454  0.30902778  0.65831387     0.06500
C1271       C  0.35466959  0.34967694  0.66027313    -0.03400
C1272       C  0.34093262  0.37739879  0.67660823    -0.07900
C1273       C  0.31813341  0.36585832  0.69157351     0.05600
C1274       C  0.31012949  0.32439849  0.69122091    -0.02900
Br1275     Br  0.27973063  0.30282136  0.71068298    -0.02600
H1276       H  0.31706285  0.26537310  0.67433203     0.09600
H1277       H  0.34794718  0.40865650  0.67711216     0.07600
Br1278     Br  0.38458132  0.37153657  0.64054921    -0.03000
C1279       C  0.18973771  0.66936216  0.68948035    -0.09700
C1280       C  0.18094067  0.62874116  0.69166509     0.06500
C1281       C  0.15560144  0.61881402  0.68088612    -0.03400
C1282       C  0.14091607  0.64815189  0.66689327    -0.07900
C1283       C  0.15064896  0.68804214  0.66249594     0.05600
C1284       C  0.17477077  0.69895361  0.67580746    -0.02900
Br1285     Br  0.18836950  0.75366581  0.67788293    -0.02600
H1286       H  0.20848811  0.67846115  0.69858676     0.09600
H1287       H  0.12118908  0.63937238  0.66033688     0.07600
Br1288     Br  0.13829885  0.56691935  0.68571743    -0.03000
C1289       C  0.30322974  0.68332702  0.69305434    -0.09700
C1290       C  0.30713963  0.64271416  0.68464944     0.06500
C1291       C  0.32427345  0.63572038  0.66192609    -0.03400
C1292       C  0.33760903  0.66833697  0.64941321    -0.07900
C1293       C  0.33472358  0.70820882  0.65890840     0.05600
C1294       C  0.31667712  0.71579668  0.68037659    -0.02900
Br1295     Br  0.30855945  0.77009492  0.69217464    -0.01400
H1296       H  0.28986297  0.69008316  0.70984310     0.09600
H1297       H  0.35106119  0.66224696  0.63256206     0.07600
Br1298     Br  0.33114417  0.58317551  0.64621672    -0.03000
C1299       C  0.32534107  0.37908074  0.84323026    -0.09700
C1300       C  0.32297848  0.37357553  0.81503634     0.06500
C1301       C  0.33542397  0.33978613  0.80264802    -0.03400
C1302       C  0.34919866  0.31165357  0.81867402    -0.07900
C1303       C  0.35042376  0.31638221  0.84695836     0.05600
C1304       C  0.33861654  0.35063334  0.85924294    -0.02900
Br1305     Br  0.33901763  0.35923450  0.89789170    -0.02600
H1306       H  0.31593776  0.40491013  0.85301663     0.09600
H1307       H  0.35814709  0.28522187  0.80916844     0.07600
Br1308     Br  0.33493973  0.33105472  0.76407994    -0.03000
C1309       C  0.18510215  0.67467374  0.80394604    -0.09700
C1310       C  0.18703925  0.63515709  0.81497986     0.06500
C1311       C  0.17369274  0.62712540  0.83989689    -0.03400
C1312       C  0.15844738  0.65730330  0.85223971    -0.07900
C1313       C  0.15410752  0.69550620  0.83995873     0.05600
C1314       C  0.16940602  0.70486517  0.81637665    -0.02900
Br1315     Br  0.17181024  0.75864538  0.80110392    -0.02600
H1316       H  0.19597060  0.68239955  0.78550934     0.09600
H1317       H  0.15042744  0.65035303  0.87215747     0.07600
Br1318     Br  0.17508791  0.57640575  0.85950634    -0.03000
C1319       C  0.18526682  0.32449517  0.70127294    -0.09700
C1320       C  0.20154045  0.35517605  0.69005221     0.06500
C1321       C  0.20359778  0.35884477  0.66157320    -0.03400
C1322       C  0.18747771  0.33499575  0.64488915    -0.07900
C1323       C  0.16881674  0.30757727  0.65606270     0.05600
C1324       C  0.16881309  0.30072009  0.68443395    -0.02900
Br1325     Br  0.14461714  0.26327685  0.70155253    -0.02600
H1326       H  0.18367556  0.32132184  0.72318013     0.09600
H1327       H  0.18811054  0.34004436  0.62308680     0.07600
Br1328     Br  0.22672193  0.39833929  0.64451913    -0.03000
O1329       O  0.70632984  0.42832481  0.31065299    -0.75800
O1330       O  0.72904173  0.38166384  0.28519227    -0.54700
C1331       C  0.71311442  0.39166645  0.30470264     0.77900
O1332       O  0.69402314  0.56086285  0.20009225    -0.60400
O1333       O  0.71657068  0.61177903  0.22154211    -0.53400
C1334       C  0.69831781  0.59883201  0.20525577     0.69900
O1335       O  0.70463408  0.42454931  0.19783968    -0.75000
O1336       O  0.72785857  0.37923475  0.22376376    -0.55500
C1337       C  0.71168410  0.38821488  0.20441684     0.75900
O1338       O  0.69810029  0.56399000  0.30575830    -0.60100
O1339       O  0.71910311  0.61364365  0.28134126    -0.53200
C1340       C  0.70235744  0.60156618  0.29967856     0.72500
Zr1341     Zr  0.71493515  0.49686892  0.29387520     2.54700
O1342       O  0.66677573  0.48841081  0.29842297    -0.80700
O1343       O  0.72140879  0.50195638  0.34279253    -0.94100
Zr1344     Zr  0.71183268  0.49423507  0.21322452     2.64700
O1345       O  0.66436557  0.48140535  0.22024446    -0.99000
O1346       O  0.70859201  0.49627769  0.16383839    -0.81100
O1347       O  0.71398937  0.45576199  0.25414068    -0.84500
O1348       O  0.71073917  0.53471611  0.25300329    -2.19200
O1349       O  0.80377685  0.57596332  0.30229740    -0.67800
O1350       O  0.77668036  0.61999976  0.27944938    -0.52400
C1351       C  0.79534767  0.61191366  0.29643716     0.70900
O1352       O  0.80787260  0.43470741  0.19968923    -0.60800
O1353       O  0.78616276  0.38556082  0.22396512    -0.52700
C1354       C  0.80342195  0.39716550  0.20622650     0.72700
O1355       O  0.80044133  0.57292987  0.19490418    -0.72200
O1356       O  0.77556595  0.61835791  0.21888654    -0.50800
C1357       C  0.79307599  0.60954231  0.20053585     0.74100
O1358       O  0.81028024  0.43853389  0.30404319    -0.67500
O1359       O  0.78820937  0.38754081  0.28177954    -0.54700
C1360       C  0.80578702  0.40070090  0.29869688     0.72500
Zr1361     Zr  0.79370082  0.50532860  0.29023035     2.77500
O1362       O  0.84222719  0.50813657  0.28671685    -0.98200
O1363       O  0.79363910  0.50634519  0.33976876    -0.79000
Zr1364     Zr  0.79088896  0.50291325  0.20982349     2.70100
O1365       O  0.83913741  0.51079119  0.20566508    -0.80300
O1366       O  0.78671921  0.49578745  0.16072309    -0.99400
Zr1367     Zr  0.75570680  0.42139854  0.25310177     2.21500
Zr1368     Zr  0.74898404  0.57802187  0.25046726     2.11100
O1369       O  0.79104483  0.54384548  0.24949251    -2.48100
O1370       O  0.79425190  0.46446335  0.25055774    -0.80100
O1371       O  0.75253542  0.54075371  0.29189871    -0.72300
O1372       O  0.75314001  0.45931250  0.21168117    -2.33200
O1373       O  0.75600909  0.46165038  0.29328026    -2.29500
O1374       O  0.74957070  0.53806380  0.21002247    -0.74000
H1375       H  0.69445536  0.55025469  0.25347044     0.78000
H1376       H  0.75383172  0.44157667  0.19608634     0.79000
H1377       H  0.80573818  0.56315476  0.24861529     0.81300
H1378       H  0.75749012  0.44478970  0.30928662     0.78900
H1379       H  0.72737164  0.49628238  0.15741817     0.41900
H1380       H  0.77972622  0.52230591  0.15444272     0.40900
H1381       H  0.84457909  0.52462448  0.22266529     0.40600
H1382       H  0.84645287  0.53643561  0.28114568     0.38500
H1383       H  0.78184507  0.52932156  0.34470739     0.41600
H1384       H  0.73617485  0.48303269  0.34682649     0.36400
H1385       H  0.65921032  0.50661916  0.28440879     0.42500
H1386       H  0.65743759  0.50664831  0.22863574     0.38900
H1387       H  0.84847094  0.50624497  0.30575833     0.43900
H1388       H  0.70536194  0.48882369  0.35084561     0.42600
H1389       H  0.65674153  0.48101529  0.20170231     0.42700
H1390       H  0.80535821  0.49509477  0.15391812     0.43100
O1391       O  0.93596274  0.44524136  0.45001965    -0.75800
O1392       O  0.96222136  0.40001810  0.47227325    -0.54700
C1393       C  0.94360257  0.40881155  0.45520769     0.77900
O1394       O  0.53809410  0.59017893  0.44371896    -0.60400
O1395       O  0.51450674  0.63648571  0.46884366    -0.53400
C1396       C  0.53121109  0.62681823  0.45000101     0.69900
O1397       O  0.54307345  0.45190687  0.44522104    -0.75000
O1398       O  0.52011445  0.40249578  0.46852523    -0.55500
C1399       C  0.53745369  0.41444353  0.45085353     0.75900
O1400       O  0.93174166  0.58162854  0.44741778    -0.60100
O1401       O  0.95460342  0.63107254  0.46982612    -0.53200
C1402       C  0.93719008  0.61931611  0.45240018     0.72500
Zr1403     Zr  0.94713071  0.51482826  0.46262221     2.54700
O1404       O  0.94476423  0.51268297  0.41317095    -0.80700
O1405       O  0.89889010  0.51274957  0.46896448    -0.94100
Zr1406     Zr  0.52821400  0.52027769  0.45819181     2.64700
O1407       O  0.52542826  0.51555152  0.40883602    -0.99000
O1408       O  0.57680581  0.52331058  0.45800902    -0.81100
O1409       O  0.98791943  0.47838638  0.46029448    -0.84500
O1410       O  0.98529686  0.55741818  0.45891701    -2.19200
O1411       O  0.93592299  0.58746030  0.05571401    -0.67800
O1412       O  0.95565621  0.63703737  0.02987835    -0.52400
C1413       C  0.93940630  0.62485006  0.04861136     0.70900
O1414       O  0.54587085  0.46047817  0.05033378    -0.60800
O1415       O  0.52427090  0.40898456  0.02881664    -0.52700
C1416       C  0.54202363  0.42246661  0.04549737     0.72700
O1417       O  0.54130174  0.59824400  0.04907008    -0.72200
O1418       O  0.51501666  0.64373893  0.02660404    -0.50800
C1419       C  0.53353043  0.63461810  0.04349251     0.74100
O1420       O  0.93990776  0.45142797  0.05631492    -0.67500
O1421       O  0.96519220  0.40559974  0.03276405    -0.54700
C1422       C  0.94725026  0.41496083  0.05048948     0.72500
Zr1423     Zr  0.95238000  0.52048576  0.04305361     2.77500
O1424       O  0.96255627  0.52206580  0.09146621    -0.98200
O1425       O  0.90426843  0.51557327  0.04983232    -0.79000
Zr1426     Zr  0.53092644  0.52787081  0.03659253     2.70100
O1427       O  0.53698436  0.53178891  0.08559949    -0.80300
O1428       O  0.57901047  0.53133140  0.02907939    -0.99400
Zr1429     Zr  0.99147440  0.44531769  0.00059559     2.21500
Zr1430     Zr  0.98605080  0.60170493  0.99941582     2.11100
O1431       O  0.99032770  0.56354265  0.04031840    -2.48100
O1432       O  0.99332103  0.48466480  0.04117005    -0.80100
O1433       O  0.94731229  0.55952749  0.00271174    -0.72300
O1434       O  0.53027526  0.48687565  0.99706952    -2.33200
O1435       O  0.95003447  0.48074207  0.00289195    -2.29500
O1436       O  0.52767700  0.56603126  0.99591773    -0.74000
H1437       H  0.98399287  0.57448348  0.44298612     0.78000
H1438       H  0.54636596  0.47094676  0.99642193     0.79000
H1439       H  0.99058064  0.58115159  0.05605032     0.81300
H1440       H  0.93508760  0.46191219  0.00392440     0.78900
H1441       H  0.58221969  0.50634681  0.47367947     0.41900
H1442       H  0.58169721  0.55527755  0.01709244     0.40900
H1443       H  0.51929095  0.52448456  0.09331855     0.40600
H1444       H  0.94555978  0.52981282  0.10041154     0.38500
H1445       H  0.90101326  0.52704803  0.06817858     0.41600
H1446       H  0.89504596  0.48530592  0.47643361     0.36400
H1447       H  0.95767282  0.49138964  0.40775639     0.42500
H1448       H  0.50806925  0.52801595  0.40429245     0.38900
H1449       H  0.96519722  0.49322306  0.09661560     0.43900
H1450       H  0.89164770  0.51204450  0.45026841     0.42600
H1451       H  0.53895744  0.53511500  0.40189692     0.42700
H1452       H  0.58636839  0.53989944  0.04684886     0.43100
C1453       C  0.85784676  0.22163234  0.39434861     0.86000
C1454       C  0.87537540  0.24884049  0.41259097    -0.54300
C1455       C  0.89203981  0.27466381  0.39858662     0.08900
C1456       C  0.88905060  0.27199161  0.36738512     0.19900
C1457       C  0.84290290  0.25296751  0.37676352    -0.55000
C1458       C  0.85911037  0.27901588  0.36273930     0.09000
C1459       C  0.87720490  0.20083888  0.37462191    -0.54500
C1460       C  0.89344110  0.22686520  0.36044912     0.09600
H1461       H  0.87333567  0.24988348  0.43458986     0.14100
H1462       H  0.90214814  0.29335142  0.35582349    -0.00200
H1463       H  0.82141533  0.25661366  0.37636152     0.14400
H1464       H  0.87757431  0.16807172  0.37159126     0.14200
O1465       O  0.79442914  0.06334492  0.44198399    -0.75800
O1466       O  0.77329300  0.11271943  0.46668590    -0.54700
C1467       C  0.79021052  0.10058939  0.44858182     0.77900
O1468       O  0.68173321  0.93545612  0.44813251    -0.60400
O1469       O  0.70614810  0.88623284  0.46865389    -0.53400
C1470       C  0.68735252  0.89783981  0.45280361     0.69900
O1471       O  0.68763812  0.07340846  0.44660492    -0.75000
O1472       O  0.71357009  0.11873733  0.46966529    -0.55500
C1473       C  0.69501896  0.11005924  0.45267690     0.75900
O1474       O  0.79203405  0.92769448  0.44647572    -0.60100
O1475       O  0.76624504  0.88102973  0.46911402    -0.53200
C1476       C  0.78532188  0.89098344  0.45270628     0.72500
Zr1477     Zr  0.77793359  0.99696457  0.45616960     2.54700
O1478       O  0.77338575  0.99448285  0.40683822    -0.80700
O1479       O  0.82646829  0.99271418  0.45426031    -0.94100
Zr1480     Zr  0.69893077  0.00307181  0.45921694     2.64700
O1481       O  0.69902702  0.99972523  0.40973706    -0.99000
O1482       O  0.65041917  0.00744730  0.46054083    -0.81100
O1483       O  0.73983323  0.03978657  0.45676736    -0.84500
O1484       O  0.73705661  0.96029536  0.45693291    -2.19200
O1485       O  0.79203364  0.93369723  0.04760430    -0.67800
O1486       O  0.76426571  0.88717478  0.02768356    -0.52400
C1487       C  0.78401201  0.89698488  0.04297103     0.70900
O1488       O  0.69078565  0.07703593  0.05548703    -0.60800
O1489       O  0.71412862  0.12307500  0.02996616    -0.52700
C1490       C  0.69736187  0.11374141  0.04902919     0.72700
O1491       O  0.68668548  0.93923057  0.05506243    -0.72200
O1492       O  0.70635887  0.89117020  0.02852996    -0.50800
C1493       C  0.69085678  0.90186932  0.04808268     0.74100
O1494       O  0.79347659  0.07224929  0.05160031    -0.67500
O1495       O  0.77238988  0.12087745  0.02655708    -0.54700
C1496       C  0.78906241  0.10956396  0.04481694     0.72500
Zr1497     Zr  0.77989875  0.00382073  0.03673374     2.77500
O1498       O  0.78312246  0.00019689  0.08613314    -0.98200
O1499       O  0.82818905  0.00521682  0.03090369    -0.79000
Zr1500     Zr  0.70085013  0.00779911  0.04084780     2.70100
O1501       O  0.70520530  0.00701874  0.09016381    -0.80300
O1502       O  0.65237881  0.01323202  0.04244553    -0.99400
Zr1503     Zr  0.74122768  0.08396129  0.99820118     2.21500
Zr1504     Zr  0.73612933  0.92779665  0.99840067     2.11100
O1505       O  0.73931511  0.96642190  0.03937935    -2.48100
O1506       O  0.74149491  0.04542470  0.03927611    -0.80100
O1507       O  0.77747653  0.96386375  0.99652638    -0.72300
O1508       O  0.69988255  0.04766972  0.00056266    -2.33200
O1509       O  0.78005903  0.04248866  0.99613064    -2.29500
O1510       O  0.69690707  0.96859604  0.00047075    -0.74000
H1511       H  0.73602420  0.94257176  0.44128524     0.78000
H1512       H  0.68503739  0.06621726  0.00150292     0.79000
H1513       H  0.73954501  0.94889506  0.05516216     0.81300
H1514       H  0.79615542  0.05891590  0.99547730     0.78900
H1515       H  0.64620710  0.01757956  0.47903507     0.41900
H1516       H  0.64574024  0.98703052  0.03508463     0.40900
H1517       H  0.68790738  0.99619023  0.09693849     0.40600
H1518       H  0.80249044  0.00242610  0.08984735     0.38500
H1519       H  0.83131591  0.99178107  0.01314329     0.41600
H1520       H  0.83298372  0.01712373  0.46404517     0.36400
H1521       H  0.76247303  0.96987599  0.40321584     0.42500
H1522       H  0.68125041  0.00997501  0.40443753     0.38900
H1523       H  0.77556406  0.02616750  0.09280165     0.43900
H1524       H  0.83112691  0.99780780  0.43493160     0.42600
H1525       H  0.71168452  0.02137232  0.40392133     0.42700
H1526       H  0.64781632  0.01224275  0.06207133     0.43100
C1527       C  0.63360635  0.72283646  0.35282577     0.86000
C1528       C  0.61677912  0.74983465  0.33383763    -0.54300
C1529       C  0.60072758  0.77704850  0.34725482     0.08900
C1530       C  0.60250810  0.77436085  0.37854052     0.19900
C1531       C  0.64848642  0.75274254  0.37132659    -0.55000
C1532       C  0.63250747  0.77989313  0.38471394     0.09000
C1533       C  0.61226447  0.70292472  0.37121833    -0.54500
C1534       C  0.59634879  0.72944265  0.38484351     0.09600
H1535       H  0.61742562  0.74791242  0.31179978     0.14100
H1536       H  0.58930107  0.79585041  0.38959489    -0.00200
H1537       H  0.67005224  0.75241255  0.37361710     0.14400
H1538       H  0.60853677  0.67042564  0.37249187     0.14200
O1539       O  0.95259888  0.08688310  0.19112639    -0.75800
O1540       O  0.97505967  0.13468777  0.21596616    -0.54700
C1541       C  0.95855300  0.12390236  0.19730466     0.77900
O1542       O  0.94607559  0.95661134  0.30148389    -0.60400
O1543       O  0.96923784  0.90669852  0.27927267    -0.53400
C1544       C  0.95124921  0.91919038  0.29598645     0.69900
O1545       O  0.95069476  0.09353737  0.29772833    -0.75000
O1546       O  0.97727836  0.13905225  0.27495234    -0.55500
C1547       C  0.95827595  0.12994158  0.29159275     0.75900
O1548       O  0.94873035  0.95014364  0.19483471    -0.60100
O1549       O  0.96979806  0.90226763  0.22029501    -0.53200
C1550       C  0.95300124  0.91302693  0.20199072     0.72500
Zr1551     Zr  0.96362021  0.01864940  0.20660659     2.54700
O1552       O  0.91504445  0.02200853  0.20788466    -0.80700
O1553       O  0.96520177  0.01194934  0.15727461    -0.94100
Zr1554     Zr  0.96254692  0.02332584  0.28739114     2.64700
O1555       O  0.91408870  0.02846719  0.28538170    -0.99000
O1556       O  0.96316381  0.02644735  0.33692732    -0.81100
O1557       O  0.96349801  0.06037482  0.24602742    -0.84500
O1558       O  0.96116787  0.98185615  0.24790630    -2.19200
O1559       O  0.55140221  0.94237979  0.19526080    -0.67800
O1560       O  0.52452767  0.89772103  0.21852416    -0.52400
C1561       C  0.54310208  0.90617363  0.20127505     0.70900
O1562       O  0.55902113  0.08423674  0.29813336    -0.60800
O1563       O  0.53746536  0.13201593  0.27314531    -0.52700
C1564       C  0.55491339  0.12141882  0.29077882     0.72700
O1565       O  0.55369609  0.94661466  0.30112381    -0.72200
O1566       O  0.52724334  0.90078657  0.27879926    -0.50800
C1567       C  0.54600298  0.91010689  0.29542530     0.74100
O1568       O  0.55587429  0.08153415  0.19243788    -0.67500
O1569       O  0.53320561  0.13084545  0.21515198    -0.54700
C1570       C  0.55036502  0.11914931  0.19730287     0.72500
Zr1571     Zr  0.54125357  0.01339875  0.20701525     2.77500
O1572       O  0.58984715  0.01206423  0.20849417    -0.98200
O1573       O  0.54053101  0.01159270  0.15746548    -0.79000
Zr1574     Zr  0.54162261  0.01601237  0.28806806     2.70100
O1575       O  0.59007843  0.01222787  0.28981377    -0.80300
O1576       O  0.53785340  0.01660873  0.33753052    -0.99400
Zr1577     Zr  0.50444758  0.09552070  0.24684518     2.21500
Zr1578     Zr  0.00014798  0.94094242  0.24886746     2.11100
O1579       O  0.54064609  0.97544416  0.24808622    -2.48100
O1580       O  0.54322358  0.05385704  0.24692664    -0.80100
O1581       O  0.00227367  0.97749544  0.20705825    -0.72300
O1582       O  0.50360015  0.05885537  0.28870614    -2.33200
O1583       O  0.50299421  0.05558481  0.20630575    -2.29500
O1584       O  0.00076289  0.98086178  0.28935767    -0.74000
H1585       H  0.94521791  0.96531669  0.24811447     0.78000
H1586       H  0.50436915  0.07701954  0.30408080     0.79000
H1587       H  0.55542782  0.95675695  0.24808780     0.81300
H1588       H  0.50340829  0.07257253  0.19032525     0.78900
H1589       H  0.97446945  0.05039044  0.34121898     0.41900
H1590       H  0.55652984  0.01530944  0.34395591     0.40900
H1591       H  0.59618241  0.02468751  0.27248376     0.40600
H1592       H  0.59435540  0.98413016  0.21443968     0.38500
H1593       H  0.52782366  0.98942103  0.15298803     0.41600
H1594       H  0.98015812  0.02977704  0.15142100     0.36400
H1595       H  0.90921771  0.99637005  0.21677939     0.42500
H1596       H  0.90882752  0.01049216  0.27014555     0.38900
H1597       H  0.59552954  0.01326042  0.18917205     0.43900
H1598       H  0.94893992  0.02584881  0.15078849     0.42600
H1599       H  0.90747769  0.01431124  0.30191958     0.42700
H1600       H  0.53198420  0.04451515  0.34215163     0.43100
C1601       C  0.88234436  0.79950548  0.14498139     0.86000
C1602       C  0.86446182  0.77087403  0.16241305    -0.54300
C1603       C  0.84850770  0.74514459  0.14756033     0.08900
C1604       C  0.85228954  0.75017121  0.11641868     0.19900
C1605       C  0.89796692  0.77077092  0.12637902    -0.55000
C1606       C  0.88251885  0.74467447  0.11182111     0.09000
C1607       C  0.86218065  0.82106906  0.12666084    -0.54500
C1608       C  0.84715484  0.79570184  0.11099451     0.09600
H1609       H  0.86468654  0.76991734  0.18441308     0.14100
H1610       H  0.83981596  0.72944486  0.10389480    -0.00200
H1611       H  0.91965552  0.77016641  0.12549096     0.14400
H1612       H  0.86012455  0.85393757  0.12570692     0.14200
C1613       C  0.60840435  0.30374245  0.10479532     0.86000
C1614       C  0.62433072  0.27355848  0.08706845    -0.54300
C1615       C  0.63877010  0.24539050  0.10140837     0.08900
C1616       C  0.63515797  0.24941490  0.13255722     0.19900
C1617       C  0.59094858  0.27686974  0.12329921    -0.55000
C1618       C  0.60465339  0.24820464  0.13749729     0.09000
C1619       C  0.62971105  0.32152058  0.12418710    -0.54500
C1620       C  0.64360762  0.29336731  0.13855336     0.09600
H1621       H  0.62351041  0.27405633  0.06503369     0.14100
H1622       H  0.64642333  0.22695867  0.14476678    -0.00200
H1623       H  0.56932903  0.27916525  0.12419893     0.14400
H1624       H  0.63484842  0.35322874  0.12660712     0.14200
C1625       C  0.85523067  0.22886062  0.10223036     0.86000
C1626       C  0.84112083  0.25689178  0.12267836    -0.54300
C1627       C  0.85789306  0.28073992  0.13792541     0.08900
C1628       C  0.88761957  0.27427338  0.13120815     0.19900
C1629       C  0.87275319  0.25839325  0.08522892    -0.55000
C1630       C  0.88929174  0.28235549  0.10040208     0.09000
C1631       C  0.87550191  0.20494705  0.11892268    -0.54500
C1632       C  0.89214066  0.22825117  0.13432447     0.09600
H1633       H  0.81951456  0.25821948  0.12451958     0.14100
H1634       H  0.90165336  0.29271928  0.14352160    -0.00200
H1635       H  0.87207011  0.26223375  0.06340018     0.14400
H1636       H  0.87661112  0.17190751  0.11861235     0.14200
C1637       C  0.63503049  0.72086751  0.14561678     0.86000
C1638       C  0.65119061  0.74984710  0.12702814    -0.54300
C1639       C  0.63629772  0.77856143  0.11375864     0.08900
C1640       C  0.60599687  0.77406167  0.11923924     0.19900
C1641       C  0.61832431  0.74868628  0.16406759    -0.55000
C1642       C  0.60324710  0.77665816  0.15052885     0.09000
C1643       C  0.61473045  0.70199372  0.12568930    -0.54500
C1644       C  0.59960168  0.72953508  0.11207232     0.09600
H1645       H  0.67262724  0.74759382  0.12431282     0.14100
H1646       H  0.59344130  0.79592603  0.10789327    -0.00200
H1647       H  0.61853798  0.74645512  0.18612033     0.14400
H1648       H  0.61298011  0.66974270  0.12132029     0.14200
C1649       C  0.60295834  0.29324712  0.39499780     0.86000
C1650       C  0.59007829  0.26445988  0.37379261    -0.54300
C1651       C  0.60768040  0.23944956  0.36024037     0.08900
C1652       C  0.63682284  0.24567839  0.36967647     0.19900
C1653       C  0.61807060  0.26419089  0.41389080    -0.55000
C1654       C  0.63573544  0.23948113  0.40075456     0.09000
C1655       C  0.62450613  0.31579373  0.37855282    -0.54500
C1656       C  0.64241865  0.29125351  0.36578167     0.09600
H1657       H  0.56895287  0.26306451  0.36961855     0.14100
H1658       H  0.65203082  0.22704276  0.35925927    -0.00200
H1659       H  0.61469621  0.26272465  0.43573519     0.14400
H1660       H  0.62572572  0.34880244  0.37734485     0.14200
C1661       C  0.88655515  0.79609802  0.35098064     0.86000
C1662       C  0.90146009  0.76254257  0.36667548    -0.54300
C1663       C  0.88539453  0.73752007  0.38208573     0.08900
C1664       C  0.85545105  0.74706937  0.37910658     0.19900
C1665       C  0.86678302  0.77158428  0.33350584    -0.55000
C1666       C  0.85095167  0.74525961  0.34800410     0.09000
C1667       C  0.86923310  0.81750864  0.37208605    -0.54500
C1668       C  0.85317619  0.79240481  0.38701267     0.09600
H1669       H  0.92294284  0.75862344  0.36564232     0.14100
H1670       H  0.84204993  0.72699418  0.39125268    -0.00200
H1671       H  0.86707615  0.77140307  0.31142417     0.14400
H1672       H  0.86965198  0.85031201  0.37501648     0.14200
C1673       C  0.59420795  0.14275800  0.31844463    -0.09700
C1674       C  0.57102726  0.15393041  0.30434136     0.06500
C1675       C  0.56337749  0.19537887  0.30497944    -0.03400
C1676       C  0.57675561  0.22265595  0.32208524    -0.07900
C1677       C  0.59821945  0.21043087  0.33855467     0.05600
C1678       C  0.60818633  0.17045153  0.33479634    -0.02900
Br1679     Br  0.64022312  0.14963505  0.35068929    -0.02600
H1680       H  0.60146623  0.11180545  0.31706372     0.09600
H1681       H  0.56985177  0.25383106  0.32285588     0.07600
Br1682     Br  0.53437029  0.21758950  0.28428335    -0.03000
C1683       C  0.59324592  0.17554804  0.14451378    -0.09700
C1684       C  0.59079892  0.21586259  0.15324776     0.06500
C1685       C  0.57397202  0.22453571  0.17549923    -0.03400
C1686       C  0.56122263  0.19268014  0.18945798    -0.07900
C1687       C  0.56446731  0.15167454  0.18145388     0.05600
C1688       C  0.58051296  0.14352630  0.15822470    -0.02900
Br1689     Br  0.58530030  0.09040609  0.14256422    -0.02600
H1690       H  0.60422551  0.16898916  0.12608994     0.09600
H1691       H  0.54871362  0.20031485  0.20675902     0.07600
Br1692     Br  0.56774905  0.27918821  0.18777651    -0.03000
C1693       C  0.89593997  0.84426510  0.31117983    -0.09700
C1694       C  0.90441996  0.82702568  0.33607334     0.06500
C1695       C  0.92744914  0.84429333  0.34855627    -0.03400
C1696       C  0.94292929  0.87313812  0.33466309    -0.07900
C1697       C  0.93490395  0.88820129  0.30952273     0.05600
C1698       C  0.91076667  0.87495362  0.29820729    -0.02900
Br1699     Br  0.89673671  0.90004188  0.26596292    -0.02600
H1700       H  0.87710968  0.83562635  0.30220521     0.09600
H1701       H  0.96084629  0.88515865  0.34405157     0.07600
Br1702     Br  0.93807104  0.83419227  0.38546722    -0.03000
C1703       C  0.56020283  0.81391841  0.15792595    -0.09700
C1704       C  0.58718905  0.80827281  0.16481822     0.06500
C1705       C  0.59889021  0.83456820  0.18423548    -0.03400
C1706       C  0.58398983  0.86607403  0.19565866    -0.07900
C1707       C  0.55727533  0.87181604  0.18868643     0.05600
C1708       C  0.54508604  0.84507674  0.17006317    -0.02900
Br1709     Br  0.50837757  0.85142744  0.15990001    -0.02600
H1710       H  0.55091609  0.79412243  0.14306131     0.09600
H1711       H  0.59340670  0.88650329  0.21007268     0.07600
Br1712     Br  0.63571969  0.83183009  0.19455803    -0.03000
C1713       C  0.93067931  0.88829299  0.16031496    -0.09700
C1714       C  0.93721859  0.88134904  0.18763136     0.06500
C1715       C  0.92777983  0.84535253  0.20021427    -0.03400
C1716       C  0.90970168  0.82007328  0.18653458    -0.07900
C1717       C  0.90146170  0.82852047  0.15973258     0.05600
C1718       C  0.91414822  0.86159109  0.14600429    -0.02900
Br1719     Br  0.91178562  0.87152125  0.10741984    -0.02600
H1720       H  0.93911031  0.91434665  0.14969553     0.09600
H1721       H  0.90316015  0.79276023  0.19685750     0.07600
Br1722     Br  0.93900923  0.82769149  0.23556125    -0.03000
C1723       C  0.93013565  0.18141409  0.13786594    -0.09700
C1724       C  0.91312937  0.20900840  0.15094840     0.06500
C1725       C  0.91377598  0.21218186  0.17958111    -0.03400
C1726       C  0.93006254  0.18581955  0.19459739    -0.07900
C1727       C  0.94537531  0.15596017  0.18137848     0.05600
C1728       C  0.94595619  0.15483218  0.15274083    -0.02900
Br1729     Br  0.96744293  0.11686183  0.13275076    -0.02600
H1730       H  0.93002632  0.17905579  0.11586205     0.09600
H1731       H  0.92949915  0.18695939  0.21663904     0.07600
Br1732     Br  0.89089185  0.24854530  0.19925593    -0.03000
C1733       C  0.60018529  0.83711049  0.31671505    -0.09700
C1734       C  0.58575288  0.80936729  0.33293355     0.06500
C1735       C  0.55802416  0.81491904  0.33650124    -0.03400
C1736       C  0.54532417  0.84769715  0.32386432    -0.07900
C1737       C  0.55999768  0.87614083  0.30852350     0.05600
C1738       C  0.58765716  0.87071544  0.30498630    -0.02900
Br1739     Br  0.60900332  0.90756974  0.28358146    -0.02600
H1740       H  0.62153364  0.83345290  0.31402498     0.09600
H1741       H  0.52395520  0.85140884  0.32638871     0.07600
Br1742     Br  0.53626784  0.77852445  0.35766771    -0.03000
C1743       C  0.80561061  0.14136223  0.08748144    -0.09700
C1744       C  0.80440214  0.14167194  0.05903262     0.06500
C1745       C  0.81821025  0.17236972  0.04467363    -0.03400
C1746       C  0.83358342  0.20111008  0.05859116    -0.07900
C1747       C  0.83590191  0.20027232  0.08718641     0.05600
C1748       C  0.82066558  0.17046469  0.10160935    -0.02900
Br1749     Br  0.81954871  0.16683989  0.14070158    -0.02600
H1750       H  0.79465893  0.11834570  0.09883671     0.09600
H1751       H  0.84387515  0.22334936  0.04630630     0.07600
Br1752     Br  0.81877415  0.17483869  0.00577831    -0.03000
C1753       C  0.68398004  0.18675268  0.05203303    -0.09700
C1754       C  0.68403937  0.14772742  0.06386844     0.06500
C1755       C  0.67106122  0.14247116  0.08933037    -0.03400
C1756       C  0.65716361  0.17480615  0.10110916    -0.07900
C1757       C  0.65561202  0.21308827  0.08846185     0.05600
C1758       C  0.67049252  0.21932619  0.06420153    -0.02900
Br1759     Br  0.67612491  0.27190456  0.04792959    -0.02600
H1760       H  0.69459911  0.19223686  0.03309561     0.09600
H1761       H  0.64764656  0.16947582  0.12051693     0.07600
Br1762     Br  0.67224424  0.09319995  0.11046029    -0.03000
C1763       C  0.67047835  0.79895266  0.07892098    -0.09700
C1764       C  0.64884062  0.81008221  0.09567452     0.06500
C1765       C  0.64115236  0.85142987  0.09609442    -0.03400
C1766       C  0.65468765  0.88002314  0.07997965    -0.07900
C1767       C  0.67667046  0.86919879  0.06370016     0.05600
C1768       C  0.68468804  0.82781838  0.06351406    -0.02900
Br1769     Br  0.71591711  0.80815337  0.04479242    -0.02600
H1770       H  0.67687184  0.76751322  0.07822575     0.09600
H1771       H  0.64823883  0.91143077  0.08081250     0.07600
Br1772     Br  0.61450548  0.87308823  0.12002727    -0.03000
C1773       C  0.80781064  0.80566536  0.40613533    -0.09700
C1774       C  0.83563364  0.80928382  0.40860088     0.06500
C1775       C  0.84621200  0.83533411  0.42873119    -0.03400
C1776       C  0.82921089  0.85995901  0.44405274    -0.07900
C1777       C  0.80153657  0.85866022  0.44016859     0.05600
C1778       C  0.79071285  0.83024546  0.42175870    -0.02900
Br1779     Br  0.75312263  0.82781570  0.41478799    -0.02600
H1780       H  0.79944501  0.78602953  0.39063173     0.09600
H1781       H  0.83772421  0.88141015  0.45838598     0.07600
Br1782     Br  0.88381308  0.83953256  0.43561249    -0.03000
C1783       C  0.65366428  0.13810350  0.43213174    -0.09700
C1784       C  0.68039682  0.14443427  0.43981808     0.06500
C1785       C  0.69186631  0.18364866  0.43571127    -0.03400
C1786       C  0.67705173  0.21426485  0.42291509    -0.07900
C1787       C  0.65063667  0.20722816  0.41497106     0.05600
C1788       C  0.63868975  0.16926538  0.42040027    -0.02900
Br1789     Br  0.60187316  0.15861754  0.41213128    -0.02600
H1790       H  0.64408779  0.10892788  0.43574706     0.09600
H1791       H  0.68614671  0.24379805  0.41923068     0.07600
Br1792     Br  0.72753856  0.19796749  0.44648367    -0.03000
C1793       C  0.78663117  0.83766819  0.07477631    -0.09700
C1794       C  0.79920564  0.86421840  0.05618125     0.06500
C1795       C  0.82705446  0.86230357  0.05265575    -0.03400
C1796       C  0.84214151  0.83677505  0.06920728    -0.07900
C1797       C  0.82991201  0.81271791  0.08942298     0.05600
C1798       C  0.80184688  0.81189550  0.09139699    -0.02900
Br1799     Br  0.78382913  0.77933462  0.11828531    -0.02600
H1800       H  0.76519194  0.83888900  0.07764086     0.09600
H1801       H  0.86371020  0.83732631  0.06729509     0.07600
Br1802     Br  0.84537390  0.89527503  0.02606563    -0.03000
C1803       C  0.65206266  0.87951784  0.41927904    -0.09700
C1804       C  0.67143044  0.86636300  0.43795853     0.06500
C1805       C  0.67550200  0.82386222  0.44077686    -0.03400
C1806       C  0.66223814  0.79665222  0.42352174    -0.07900
C1807       C  0.64388662  0.81019179  0.40405431     0.05600
C1808       C  0.63815661  0.85212546  0.40278629    -0.02900
Br1809     Br  0.61294950  0.87527707  0.37820791    -0.02600
H1810       H  0.64787691  0.91164664  0.41695130     0.09600
H1811       H  0.66619924  0.76437125  0.42543138     0.07600
Br1812     Br  0.69793604  0.79969935  0.46789749    -0.03000
C1813       C  0.89998274  0.19019868  0.31708157    -0.09700
C1814       C  0.91146317  0.21148254  0.33885280     0.06500
C1815       C  0.93946886  0.21172802  0.34169293    -0.03400
C1816       C  0.95519814  0.18723392  0.32461404    -0.07900
C1817       C  0.94323097  0.16304097  0.30451746     0.05600
C1818       C  0.91567696  0.16637374  0.29984778    -0.02900
Br1819     Br  0.89863257  0.13730782  0.27078900    -0.02600
H1820       H  0.87852437  0.19046346  0.31435480     0.09600
H1821       H  0.97648411  0.18510457  0.32814922     0.07600
Br1822     Br  0.95684320  0.24176373  0.36998394    -0.03000
C1823       C  0.81400347  0.18209583  0.39976223    -0.09700
C1824       C  0.84008804  0.19048541  0.40929345     0.06500
C1825       C  0.84998599  0.16546750  0.43054678    -0.03400
C1826       C  0.83326739  0.13672415  0.44311832    -0.07900
C1827       C  0.80683184  0.13137245  0.43482184     0.05600
C1828       C  0.79756159  0.15304268  0.41227271    -0.02900
Br1829     Br  0.76366040  0.14100898  0.39609979    -0.02600
H1830       H  0.80638851  0.19628002  0.38162185     0.09600
H1831       H  0.84106820  0.11798615  0.45937566     0.07600
Br1832     Br  0.88633741  0.16618207  0.44274031    -0.03000
C1833       C  0.55592176  0.35052681  0.05612047    -0.09700
C1834       C  0.55945026  0.39269582  0.06013226     0.06500
C1835       C  0.57981001  0.40536707  0.07823850    -0.03400
C1836       C  0.59535950  0.37672564  0.09164043    -0.07900
C1837       C  0.59175010  0.33446315  0.08826697     0.05600
C1838       C  0.57154610  0.32169549  0.06991277    -0.02900
Br1839     Br  0.56348659  0.26530717  0.06303898    -0.02600
H1840       H  0.54064411  0.33964151  0.04237757     0.09600
H1841       H  0.61000682  0.38919376  0.10508741     0.07600
Br1842     Br  0.58851223  0.46110386  0.08702598    -0.03000
C1843       C  0.57032432  0.68484182  0.04800156    -0.09700
C1844       C  0.54670365  0.66773034  0.05843995     0.06500
C1845       C  0.53844584  0.67743343  0.08505510    -0.03400
C1846       C  0.55493859  0.70120481  0.10166345    -0.07900
C1847       C  0.57960702  0.71577325  0.09197225     0.05600
C1848       C  0.58679943  0.70878770  0.06456922    -0.02900
Br1849     Br  0.62006582  0.72771569  0.04964000    -0.02600
H1850       H  0.57679460  0.67744723  0.02750914     0.09600
H1851       H  0.54930336  0.70612964  0.12273035     0.07600
Br1852     Br  0.50575720  0.65609867  0.10004671    -0.03000
C1853       C  0.89783141  0.71785624  0.06712636    -0.09700
C1854       C  0.89472224  0.71218328  0.09523513     0.06500
C1855       C  0.90592456  0.67762568  0.10763614    -0.03400
C1856       C  0.92022899  0.64972293  0.09197946    -0.07900
C1857       C  0.92391445  0.65558822  0.06389957     0.05600
C1858       C  0.91227448  0.68988349  0.05137477    -0.02900
Br1859     Br  0.91419638  0.69912799  0.01286503    -0.02600
H1860       H  0.88936247  0.74448257  0.05749540     0.09600
H1861       H  0.92891981  0.62353657  0.10194887     0.07600
Br1862     Br  0.90260375  0.66702768  0.14591965    -0.03000
C1863       C  0.56020329  0.68846572  0.44645337    -0.09700
C1864       C  0.54330942  0.65994823  0.43390752     0.06500
C1865       C  0.53988935  0.66134269  0.40554979    -0.03400
C1866       C  0.55551099  0.68780679  0.38988236    -0.07900
C1867       C  0.57436763  0.71362362  0.40211193     0.05600
C1868       C  0.57565253  0.71547256  0.43069430    -0.02900
Br1869     Br  0.60006759  0.75122742  0.44886782    -0.02600
H1870       H  0.56255808  0.68810869  0.46836126     0.09600
H1871       H  0.55417583  0.68640177  0.36789149     0.07600
Br1872     Br  0.51465910  0.62682426  0.38732091    -0.03000
C1873       C  0.91831983  0.71934873  0.41757544    -0.09700
C1874       C  0.89677186  0.70708736  0.40132727     0.06500
C1875       C  0.88749918  0.66653889  0.40357190    -0.03400
C1876       C  0.90045790  0.63917616  0.42087504    -0.07900
C1877       C  0.92276669  0.65097030  0.43638474     0.05600
C1878       C  0.93127205  0.69221362  0.43493782    -0.02900
Br1879     Br  0.96081168  0.71464700  0.45493865    -0.02600
H1880       H  0.92534982  0.75057360  0.41664685     0.09600
H1881       H  0.89321938  0.60805467  0.42171708     0.07600
Br1882     Br  0.85871254  0.64490111  0.38247648    -0.03000
C1883       C  0.58058428  0.38204611  0.44092849    -0.09700
C1884       C  0.55305284  0.38291489  0.43682869     0.06500
C1885       C  0.54113963  0.35327697  0.42018901    -0.03400
C1886       C  0.55702556  0.32416734  0.40709647    -0.07900
C1887       C  0.58504111  0.32329919  0.41060512     0.05600
C1888       C  0.59648763  0.35243030  0.42861656    -0.02900
Br1889     Br  0.63379361  0.35437860  0.43774057    -0.02600
H1890       H  0.58977083  0.40430576  0.45425291     0.09600
H1891       H  0.54684513  0.30256266  0.39435102     0.07600
Br1892     Br  0.50336402  0.35226113  0.41381715    -0.03000
C1893       C  0.93208726  0.31807770  0.08995608    -0.09700
C1894       C  0.90417677  0.31683224  0.08827572     0.06500
C1895       C  0.89058176  0.34889738  0.07529545    -0.03400
C1896       C  0.90504849  0.38099345  0.06369398    -0.07900
C1897       C  0.93302683  0.38148748  0.06435890     0.05600
C1898       C  0.94660543  0.34994277  0.07784752    -0.02900
Br1899     Br  0.98473213  0.35005442  0.08129633    -0.02600
H1900       H  0.94259045  0.29395993  0.10038789     0.09600
H1901       H  0.89439942  0.40542219  0.05373012     0.07600
Br1902     Br  0.85224939  0.35174231  0.07437236    -0.03000
C1903       C  0.93643636  0.33419395  0.44725897    -0.09700
C1904       C  0.93023761  0.37470299  0.44027524     0.06500
C1905       C  0.91198701  0.38115616  0.41860800    -0.03400
C1906       C  0.90116391  0.34798454  0.40467994    -0.07900
C1907       C  0.90681016  0.30799629  0.41227540     0.05600
C1908       C  0.92484066  0.30113318  0.43363864    -0.02900
Br1909     Br  0.93557154  0.24744943  0.44403441    -0.02600
H1910       H  0.95044326  0.32794912  0.46342052     0.09600
H1911       H  0.88754909  0.35359342  0.38809482     0.07600
Br1912     Br  0.89986121  0.43344473  0.40624437    -0.03000
C1913       C  0.83653771  0.65025347  0.30650510    -0.09700
C1914       C  0.80886583  0.64641988  0.30966800     0.06500
C1915       C  0.79488674  0.67536345  0.32530996    -0.03400
C1916       C  0.80887315  0.70713136  0.33805442    -0.07900
C1917       C  0.83655484  0.71143237  0.33442567     0.05600
C1918       C  0.85037503  0.68274184  0.31819697    -0.02900
Br1919     Br  0.88831419  0.68477531  0.31210155    -0.02600
H1920       H  0.84741502  0.62810199  0.29449384     0.09600
H1921       H  0.79809275  0.72882841  0.35049236     0.07600
Br1922     Br  0.75693377  0.67187441  0.33042095    -0.03000
C1923       C  0.68172003  0.33692068  0.36424135    -0.09700
C1924       C  0.66541979  0.30869863  0.35071175     0.06500
C1925       C  0.66906278  0.30256586  0.32254530    -0.03400
C1926       C  0.68661357  0.32788804  0.30795561    -0.07900
C1927       C  0.70068583  0.35910716  0.32113932     0.05600
C1928       C  0.69937038  0.36189618  0.34974194    -0.02900
Br1929     Br  0.72085184  0.39961915  0.36996488    -0.02600
H1930       H  0.67972358  0.34092555  0.38605894     0.09600
H1931       H  0.68776000  0.32511320  0.28600262     0.07600
Br1932     Br  0.64862587  0.26356574  0.30239138    -0.03000
C1933       C  0.82590416  0.29669958  0.17489499    -0.09700
C1934       C  0.84729190  0.30981765  0.15845737     0.06500
C1935       C  0.85609675  0.35065008  0.16074480    -0.03400
C1936       C  0.84184644  0.37782404  0.17699973    -0.07900
C1937       C  0.81916376  0.36546784  0.19185341     0.05600
C1938       C  0.81190923  0.32365704  0.19156016    -0.02900
Br1939     Br  0.78274531  0.30019966  0.21201522    -0.02600
H1940       H  0.81957084  0.26510467  0.17429960     0.09600
H1941       H  0.84846390  0.40927216  0.17762121     0.07600
Br1942     Br  0.88633392  0.37343540  0.14205074    -0.03000
C1943       C  0.69053201  0.67038953  0.18919121    -0.09700
C1944       C  0.68136526  0.62989585  0.19129139     0.06500
C1945       C  0.65601531  0.62055670  0.18030857    -0.03400
C1946       C  0.64154522  0.65036197  0.16649718    -0.07900
C1947       C  0.65163659  0.69003993  0.16212193     0.05600
C1948       C  0.67593069  0.70035874  0.17537650    -0.02900
Br1949     Br  0.69036842  0.75468324  0.17697253    -0.02600
H1950       H  0.70936760  0.67901241  0.19832221     0.09600
H1951       H  0.62176415  0.64203400  0.15984256     0.07600
Br1952     Br  0.63860972  0.56855464  0.18418317    -0.03000
C1953       C  0.80390992  0.68382504  0.19640798    -0.09700
C1954       C  0.80600480  0.64425124  0.18553541     0.06500
C1955       C  0.82065359  0.63934872  0.16096129    -0.03400
C1956       C  0.83303597  0.67298825  0.14857655    -0.07900
C1957       C  0.83203762  0.71194080  0.16020449     0.05600
C1958       C  0.81659422  0.71732936  0.18411291    -0.02900
Br1959     Br  0.81044524  0.76964645  0.20035742    -0.01400
H1960       H  0.79254530  0.68893021  0.21491251     0.09600
H1961       H  0.84441089  0.66816579  0.13006197     0.07600
Br1962     Br  0.82512988  0.58817715  0.14263058    -0.03000
C1963       C  0.82129622  0.37374550  0.34283777    -0.09700
C1964       C  0.82114715  0.37044480  0.31435572     0.06500
C1965       C  0.83490676  0.33791409  0.30189982    -0.03400
C1966       C  0.84872990  0.30982579  0.31795445    -0.07900
C1967       C  0.84800037  0.31250404  0.34639217     0.05600
C1968       C  0.83387315  0.34448739  0.35887534    -0.02900
Br1969     Br  0.82981040  0.34816198  0.39771660    -0.02600
H1970       H  0.81048640  0.39817519  0.35272015     0.09600
H1971       H  0.85906916  0.28474604  0.30827743     0.07600
Br1972     Br  0.83550875  0.33017739  0.26326977    -0.03000
C1973       C  0.68516130  0.67284312  0.30412398    -0.09700
C1974       C  0.68647289  0.63291581  0.31447724     0.06500
C1975       C  0.67271612  0.62422576  0.33903573    -0.03400
C1976       C  0.65651393  0.65369364  0.35097576    -0.07900
C1977       C  0.65273391  0.69240516  0.33912356     0.05600
C1978       C  0.66921820  0.70265942  0.31654641    -0.02900
Br1979     Br  0.67274113  0.75709272  0.30260672    -0.02600
H1980       H  0.69672611  0.68119887  0.28625288     0.09600
H1981       H  0.64771049  0.64604335  0.37042556     0.07600
Br1982     Br  0.67596617  0.57408325  0.35907704    -0.03000
C1983       C  0.68270500  0.32675148  0.20033018    -0.09700
C1984       C  0.70006830  0.35508667  0.18803773     0.06500
C1985       C  0.70244357  0.35588667  0.15947109    -0.03400
C1986       C  0.68602864  0.33104536  0.14367355    -0.07900
C1987       C  0.66631810  0.30634188  0.15581109     0.05600
C1988       C  0.66554394  0.30278935  0.18439782    -0.02900
Br1989     Br  0.63891634  0.27071272  0.20269223    -0.02600
H1990       H  0.68067205  0.32603482  0.22229670     0.09600
H1991       H  0.68694657  0.33386418  0.12169903     0.07600
Br1992     Br  0.72596729  0.39328153  0.14097793    -0.03000
O1993       O  0.70563436  0.42937273  0.80926462    -0.75800
O1994       O  0.72917153  0.38246147  0.78477912    -0.54700
C1995       C  0.71215407  0.39262804  0.80319652     0.77900
O1996       O  0.69486937  0.56133756  0.70086496    -0.60400
O1997       O  0.71825980  0.61246589  0.72121759    -0.53400
C1998       C  0.69955795  0.59936776  0.70557895     0.69900
O1999       O  0.70596964  0.42472048  0.69887174    -0.75000
O2000       O  0.72977904  0.37947926  0.72426740    -0.55500
C2001       C  0.71358321  0.38845654  0.70494013     0.75900
O2002       O  0.69999924  0.56572132  0.80599701    -0.60100
O2003       O  0.72039123  0.61473304  0.78044740    -0.53200
C2004       C  0.70381850  0.60304410  0.79905295     0.72500
Zr2005     Zr  0.71671709  0.49839926  0.79479753     2.54700
O2006       O  0.66847561  0.49415968  0.80040599    -0.80700
O2007       O  0.72367688  0.50026787  0.84386393    -0.94100
Zr2008     Zr  0.71243978  0.49454772  0.71426315     2.64700
O2009       O  0.66520829  0.48109087  0.72244385    -0.99000
O2010       O  0.70626738  0.49743992  0.66523139    -0.81100
O2011       O  0.71520439  0.45676970  0.75539151    -0.84500
O2012       O  0.71211992  0.53562081  0.75368383    -2.19200
O2013       O  0.80569773  0.57794949  0.80124822    -0.67800
O2014       O  0.77805322  0.62125586  0.77853047    -0.52400
C2015       C  0.79697434  0.61371096  0.79529814     0.70900
O2016       O  0.80740944  0.43327568  0.69905143    -0.60800
O2017       O  0.78679889  0.38490858  0.72494750    -0.52700
C2018       C  0.80329057  0.39592430  0.70629429     0.72700
O2019       O  0.80253395  0.57122875  0.69477104    -0.72200
O2020       O  0.77795796  0.61748845  0.71831030    -0.50800
C2021       C  0.79564564  0.60804588  0.70023878     0.74100
O2022       O  0.81177092  0.44101668  0.80467750    -0.67500
O2023       O  0.78959569  0.38956619  0.78298912    -0.54700
C2024       C  0.80728745  0.40313381  0.79964932     0.72500
Zr2025     Zr  0.79531789  0.50708093  0.79006211     2.77500
O2026       O  0.84376040  0.51109127  0.78520278    -0.98200
O2027       O  0.79585993  0.50959674  0.83955724    -0.79000
Zr2028     Zr  0.79158759  0.50203249  0.70976416     2.70100
O2029       O  0.84007656  0.50485392  0.70614769    -0.80300
O2030       O  0.78538746  0.49759872  0.66077072    -0.99400
Zr2031     Zr  0.75687374  0.42218051  0.75394118     2.21500
Zr2032     Zr  0.75045931  0.57860079  0.75009397     2.11100
O2033       O  0.79225833  0.54412837  0.74889371    -2.48100
O2034       O  0.79542148  0.46493520  0.75089772    -0.80100
O2035       O  0.75424375  0.54253636  0.79200311    -0.72300
O2036       O  0.75367408  0.45925584  0.71230893    -2.33200
O2037       O  0.75771091  0.46308060  0.79391313    -2.29500
O2038       O  0.75041017  0.53769046  0.71013781    -0.74000
H2039       H  0.69587920  0.55125688  0.75419231     0.78000
H2040       H  0.75427483  0.44142368  0.69676565     0.79000
H2041       H  0.80699774  0.56331013  0.74769694     0.81300
H2042       H  0.75917595  0.44628289  0.80994532     0.78900
H2043       H  0.72374945  0.50684347  0.65802461     0.41900
H2044       H  0.77666275  0.52350460  0.65574466     0.40900
H2045       H  0.84540516  0.52804178  0.71781509     0.40600
H2046       H  0.84694080  0.53155969  0.77072560     0.38500
H2047       H  0.78159404  0.52909957  0.84440321     0.41600
H2048       H  0.73923028  0.48252848  0.84719155     0.36400
H2049       H  0.66128574  0.50335567  0.78272946     0.42500
H2050       H  0.65833756  0.50629657  0.73091540     0.38900
H2051       H  0.84994239  0.52452772  0.80208244     0.43900
H2052       H  0.70832101  0.48502083  0.85165690     0.42600
H2053       H  0.65717047  0.48051518  0.70408569     0.42700
H2054       H  0.80364277  0.49982861  0.65305823     0.43100
O2055       O  0.93734337  0.45008465  0.94798106    -0.75800
O2056       O  0.96280479  0.40523569  0.97152501    -0.54700
C2057       C  0.94506526  0.41375934  0.95359931     0.77900
O2058       O  0.53610051  0.59477965  0.94223225    -0.60400
O2059       O  0.51453280  0.64161779  0.96869697    -0.53400
C2060       C  0.53052633  0.63163671  0.94927039     0.69900
O2061       O  0.54247892  0.45664753  0.94473988    -0.75000
O2062       O  0.52092682  0.40776424  0.96990248    -0.55500
C2063       C  0.53788024  0.41935925  0.95168454     0.75900
O2064       O  0.93093140  0.58731511  0.94866334    -0.60100
O2065       O  0.95469990  0.63655432  0.97029861    -0.53200
C2066       C  0.93673982  0.62495050  0.95340414     0.72500
Zr2067     Zr  0.94659768  0.51985473  0.96237951     2.54700
O2068       O  0.94431801  0.51969749  0.91289393    -0.80700
O2069       O  0.89813695  0.51546368  0.96624909    -0.94100
Zr2070     Zr  0.52595542  0.52476296  0.95629238     2.64700
O2071       O  0.52073107  0.52003947  0.90710375    -0.99000
O2072       O  0.57429582  0.53019690  0.95229202    -0.81100
O2073       O  0.98714183  0.48310045  0.95945213    -0.84500
O2074       O  0.98475293  0.56239875  0.95858453    -2.19200
O2075       O  0.93558213  0.58331311  0.55562095    -0.67800
O2076       O  0.95567405  0.63268203  0.52977109    -0.52400
C2077       C  0.93951555  0.62060948  0.54857961     0.70900
O2078       O  0.54654652  0.45477570  0.55150102    -0.60800
O2079       O  0.52609726  0.40423607  0.52771570    -0.52700
C2080       C  0.54361807  0.41712363  0.54495387     0.72700
O2081       O  0.53786143  0.59099295  0.55366449    -0.72200
O2082       O  0.51403517  0.63763580  0.52951007    -0.50800
C2083       C  0.53063956  0.62761557  0.54821106     0.74100
O2084       O  0.94076973  0.44676765  0.55765242    -0.67500
O2085       O  0.96563193  0.40059288  0.53384474    -0.54700
C2086       C  0.94798347  0.41023124  0.55181356     0.72500
Zr2087     Zr  0.95130747  0.51592163  0.54291501     2.77500
O2088       O  0.95419664  0.51919400  0.59231852    -0.98200
O2089       O  0.90294243  0.50851988  0.54491897    -0.79000
Zr2090     Zr  0.52968752  0.52154913  0.53866113     2.70100
O2091       O  0.53286850  0.52018113  0.58807444    -0.80300
O2092       O  0.57775088  0.53084086  0.53367642    -0.99400
Zr2093     Zr  0.99169257  0.44016557  0.50140106     2.21500
Zr2094     Zr  0.98582392  0.59703202  0.49952588     2.11100
O2095       O  0.98924019  0.55917440  0.54075752    -2.48100
O2096       O  0.99236649  0.48016424  0.54187674    -0.80100
O2097       O  0.94696390  0.55512689  0.50254693    -0.72300
O2098       O  0.53096123  0.48151064  0.49868513    -2.33200
O2099       O  0.95022394  0.47560214  0.50305834    -2.29500
O2100       O  0.52825786  0.56088731  0.49821110    -0.74000
H2101       H  0.98327034  0.57973091  0.94279655     0.78000
H2102       H  0.54704702  0.46556099  0.49827194     0.79000
H2103       H  0.98924951  0.57697043  0.55639677     0.81300
H2104       H  0.93531991  0.45667464  0.50409033     0.78900
H2105       H  0.58119170  0.51236224  0.96687723     0.41900
H2106       H  0.57984443  0.55213847  0.51953585     0.40900
H2107       H  0.52297355  0.49535030  0.59369721     0.40600
H2108       H  0.96416263  0.54466236  0.59612051     0.38500
H2109       H  0.89652783  0.52205748  0.52819721     0.41600
H2110       H  0.89429989  0.48655646  0.97059958     0.36400
H2111       H  0.95439351  0.54421745  0.90702543     0.42500
H2112       H  0.50494553  0.53690755  0.90298873     0.38900
H2113       H  0.93570889  0.52489058  0.59843589     0.43900
H2114       H  0.89173448  0.51894788  0.94736931     0.42600
H2115       H  0.53604098  0.53560656  0.89950484     0.42700
H2116       H  0.58335442  0.54433476  0.55074576     0.43100
C2117       C  0.85852854  0.22622952  0.89593041     0.86000
C2118       C  0.87724244  0.25228056  0.91380398    -0.54300
C2119       C  0.89449787  0.27686892  0.89937985     0.08900
C2120       C  0.89101057  0.27369226  0.86824694     0.19900
C2121       C  0.84441517  0.25871300  0.87852532    -0.55000
C2122       C  0.86129584  0.28324599  0.86409836     0.09000
C2123       C  0.87687949  0.20370039  0.87601773    -0.54500
C2124       C  0.89385323  0.22813716  0.86160738     0.09600
H2125       H  0.87525780  0.25393385  0.93578781     0.14100
H2126       H  0.90470624  0.29358544  0.85624893    -0.00200
H2127       H  0.82308451  0.26411543  0.87847226     0.14400
H2128       H  0.87638890  0.17084934  0.87342521     0.14200
O2129       O  0.79332592  0.06914837  0.94267867    -0.75800
O2130       O  0.77154258  0.11874609  0.96657398    -0.54700
C2131       C  0.78888316  0.10646083  0.94893150     0.77900
O2132       O  0.68239924  0.94085948  0.94585064    -0.60400
O2133       O  0.70592845  0.89233666  0.96815448    -0.53400
C2134       C  0.68840493  0.90340770  0.95071935     0.69900
O2135       O  0.68594766  0.07890313  0.94760409    -0.75000
O2136       O  0.71168018  0.12439250  0.97072477    -0.55500
C2137       C  0.69325755  0.11553653  0.95365537     0.75900
O2138       O  0.78666717  0.93245085  0.94308402    -0.60100
O2139       O  0.76419857  0.88611210  0.96938262    -0.53200
C2140       C  0.78073232  0.89573094  0.95030484     0.72500
Zr2141     Zr  0.77618335  0.00267544  0.95593216     2.54700
O2142       O  0.77043423  0.00520240  0.90680093    -0.80700
O2143       O  0.82442383  0.99624921  0.95130838    -0.94100
Zr2144     Zr  0.69708547  0.00873141  0.96013399     2.64700
O2145       O  0.69420855  0.01191948  0.91068894    -0.99000
O2146       O  0.64871635  0.01082727  0.96547826    -0.81100
O2147       O  0.73802277  0.04539019  0.95728939    -0.84500
O2148       O  0.73534199  0.96641570  0.95725846    -2.19200
O2149       O  0.79416201  0.92794259  0.54626227    -0.67800
O2150       O  0.76662463  0.88129618  0.52613972    -0.52400
C2151       C  0.78661473  0.89119029  0.54108295     0.70900
O2152       O  0.69138055  0.07175135  0.55427228    -0.60800
O2153       O  0.71564502  0.11763658  0.52950128    -0.52700
C2154       C  0.69850729  0.10843504  0.54822967     0.72700
O2155       O  0.68622647  0.93367646  0.55352482    -0.72200
O2156       O  0.70719339  0.88528316  0.52831581    -0.50800
C2157       C  0.69066533  0.89622557  0.54695608     0.74100
O2158       O  0.79447758  0.06612029  0.55173031    -0.67500
O2159       O  0.77340248  0.11471332  0.52663596    -0.54700
C2160       C  0.79001648  0.10344738  0.54496923     0.72500
Zr2161     Zr  0.78050095  0.99781346  0.53692132     2.77500
O2162       O  0.78228387  0.99295426  0.58630275    -0.98200
O2163       O  0.82891932  0.99874852  0.53259446    -0.79000
Zr2164     Zr  0.70132071  0.00208522  0.53999325     2.70100
O2165       O  0.70277548  0.00111939  0.58951509    -0.80300
O2166       O  0.65278978  0.00679344  0.53995960    -0.99400
Zr2167     Zr  0.74247025  0.07808690  0.49784446     2.21500
Zr2168     Zr  0.73719641  0.92169469  0.49806369     2.11100
O2169       O  0.73982824  0.96031899  0.53920181    -2.48100
O2170       O  0.74209149  0.03945963  0.53896619    -0.80100
O2171       O  0.77825343  0.95820940  0.49671348    -0.72300
O2172       O  0.70096018  0.04200951  0.49969552    -2.33200
O2173       O  0.78128856  0.03669458  0.49636660    -2.29500
O2174       O  0.69822332  0.96304877  0.49955039    -0.74000
H2175       H  0.73430998  0.94907115  0.94142442     0.78000
H2176       H  0.68612260  0.06058128  0.50036283     0.79000
H2177       H  0.73992933  0.94268150  0.55492405     0.81300
H2178       H  0.79738463  0.05312828  0.49587269     0.78900
H2179       H  0.64527492  0.03518962  0.97679776     0.41900
H2180       H  0.64688776  0.98527800  0.52719545     0.40900
H2181       H  0.72133649  0.99340285  0.59388896     0.40600
H2182       H  0.80027783  0.00329419  0.59102420     0.38500
H2183       H  0.83244695  0.98710812  0.51434973     0.41600
H2184       H  0.83191564  0.02122905  0.95963579     0.36400
H2185       H  0.75659010  0.02616498  0.90393187     0.42500
H2186       H  0.69936081  0.98452251  0.90421415     0.38900
H2187       H  0.76994255  0.01431736  0.59284936     0.43900
H2188       H  0.82792638  0.99944363  0.93155723     0.42600
H2189       H  0.67483057  0.01371491  0.90695316     0.42700
H2190       H  0.64720060  0.99672236  0.55813322     0.43100
C2191       C  0.63523303  0.72512527  0.85120583     0.86000
C2192       C  0.61745728  0.75172907  0.83293128    -0.54300
C2193       C  0.60197228  0.77900368  0.84695209     0.08900
C2194       C  0.60508230  0.77641285  0.87817428     0.19900
C2195       C  0.65079573  0.75534364  0.86881976    -0.55000
C2196       C  0.63532713  0.78242871  0.88290441     0.09000
C2197       C  0.61480015  0.70509636  0.87061022    -0.54500
C2198       C  0.59933738  0.73144144  0.88489570     0.09600
H2199       H  0.61682357  0.74930117  0.81094004     0.14100
H2200       H  0.59224952  0.79771714  0.88980387    -0.00200
H2201       H  0.67246616  0.75541893  0.86979100     0.14400
H2202       H  0.61122004  0.67252672  0.87184878     0.14200
O2203       O  0.95379193  0.08785708  0.69160434    -0.75800
O2204       O  0.97705338  0.13558902  0.71575617    -0.54700
C2205       C  0.96009001  0.12480414  0.69753162     0.77900
O2206       O  0.94701816  0.95827541  0.80266704    -0.60400
O2207       O  0.96820628  0.90757510  0.77928901    -0.53400
C2208       C  0.95115566  0.92075034  0.79678873     0.69900
O2209       O  0.95235522  0.09381911  0.79929548    -0.75000
O2210       O  0.97816029  0.13910362  0.77539555    -0.55500
C2211       C  0.95973799  0.13014543  0.79288268     0.75900
O2212       O  0.94897010  0.95138396  0.69434080    -0.60100
O2213       O  0.96996117  0.90333079  0.71977794    -0.53200
C2214       C  0.95325830  0.91422923  0.70143239     0.72500
Zr2215     Zr  0.96455013  0.01935977  0.70658048     2.54700
O2216       O  0.91608179  0.02432420  0.70592469    -0.80700
O2217       O  0.96852334  0.01394332  0.65727894    -0.94100
Zr2218     Zr  0.96353745  0.02410575  0.78748034     2.64700
O2219       O  0.91509259  0.02988124  0.78604832    -0.99000
O2220       O  0.96419298  0.02595807  0.83701443    -0.81100
O2221       O  0.96461766  0.06105758  0.74604388    -0.84500
O2222       O  0.96151047  0.98264574  0.74799416    -2.19200
O2223       O  0.55246229  0.94319876  0.69584640    -0.67800
O2224       O  0.52617261  0.89841538  0.71961137    -0.52400
C2225       C  0.54445928  0.90691809  0.70200654     0.70900
O2226       O  0.55742825  0.08551101  0.79880526    -0.60800
O2227       O  0.53504394  0.13310203  0.77440540    -0.52700
C2228       C  0.55259498  0.12265624  0.79194749     0.72700
O2229       O  0.55147543  0.94784062  0.80318116    -0.72200
O2230       O  0.52670892  0.90131945  0.77951437    -0.50800
C2231       C  0.54459049  0.91110388  0.79696152     0.74100
O2232       O  0.55906713  0.08155243  0.69486317    -0.67500
O2233       O  0.53466406  0.13121083  0.71540224    -0.54700
C2234       C  0.55309959  0.11920451  0.69891398     0.72500
Zr2235     Zr  0.54288957  0.01392653  0.70856362     2.77500
O2236       O  0.59125927  0.00856372  0.71223434    -0.98200
O2237       O  0.54537129  0.01141824  0.65911929    -0.79000
Zr2238     Zr  0.53989076  0.01740518  0.78934695     2.70100
O2239       O  0.58819540  0.01232965  0.79317405    -0.80300
O2240       O  0.53476105  0.02277120  0.83856653    -0.99400
Zr2241     Zr  0.50393459  0.09646545  0.74606980     2.21500
Zr2242     Zr  0.00007747  0.94066525  0.74921707     2.11100
O2243       O  0.54080490  0.97631207  0.74967575    -2.48100
O2244       O  0.54295224  0.05517673  0.74818843    -0.80100
O2245       O  0.00247767  0.97681587  0.70735333    -0.72300
O2246       O  0.50154221  0.05965639  0.78790642    -2.33200
O2247       O  0.50445977  0.05587993  0.70577366    -2.29500
O2248       O  0.00148930  0.98128046  0.78936498    -0.74000
H2249       H  0.94533334  0.96658774  0.74818938     0.78000
H2250       H  0.50164682  0.07805888  0.80316922     0.79000
H2251       H  0.55557731  0.95767053  0.75030483     0.81300
H2252       H  0.50549906  0.07273023  0.68974218     0.78900
H2253       H  0.97708614  0.00460543  0.84221694     0.41900
H2254       H  0.55319013  0.02665181  0.84531931     0.40900
H2255       H  0.59411635  0.00146899  0.77535366     0.40600
H2256       H  0.59435612  0.98228109  0.72156118     0.38500
H2257       H  0.53167108  0.03086928  0.65289563     0.41600
H2258       H  0.98351186  0.03229417  0.65230010     0.36400
H2259       H  0.91185362  0.04548107  0.71961846     0.42500
H2260       H  0.90908658  0.00666530  0.77475065     0.38900
H2261       H  0.59748259  0.00394953  0.69332369     0.43900
H2262       H  0.95243095  0.02761801  0.65016510     0.42600
H2263       H  0.90904471  0.02296654  0.80472246     0.42700
H2264       H  0.52609515  0.04940671  0.84164757     0.43100
C2265       C  0.88456966  0.79801422  0.64427615     0.86000
C2266       C  0.86698211  0.76913513  0.66181269    -0.54300
C2267       C  0.85157755  0.74266448  0.64703661     0.08900
C2268       C  0.85521411  0.74731803  0.61595428     0.19900
C2269       C  0.90058485  0.76952873  0.62584744    -0.55000
C2270       C  0.88542994  0.74283952  0.61139688     0.09000
C2271       C  0.86423809  0.81867147  0.62564142    -0.54500
C2272       C  0.84949307  0.79248284  0.61019926     0.09600
H2273       H  0.86681818  0.76859230  0.68383446     0.14100
H2274       H  0.84305380  0.72579820  0.60368425    -0.00200
H2275       H  0.92227971  0.76947609  0.62502524     0.14400
H2276       H  0.86209634  0.85147672  0.62409926     0.14200
C2277       C  0.61118405  0.29979967  0.60427225     0.86000
C2278       C  0.62610872  0.26820040  0.58677639    -0.54300
C2279       C  0.64128079  0.24111546  0.60121741     0.08900
C2280       C  0.63926410  0.24726782  0.63232368     0.19900
C2281       C  0.59468591  0.27458813  0.62469851    -0.55000
C2282       C  0.60900153  0.24651904  0.63882083     0.09000
C2283       C  0.63317256  0.31893316  0.62227202    -0.54500
C2284       C  0.64794898  0.29178241  0.63678080     0.09600
H2285       H  0.62438211  0.26719423  0.56477983     0.14100
H2286       H  0.65106201  0.22520418  0.64434537    -0.00200
H2287       H  0.57320101  0.27739100  0.62702018     0.14400
H2288       H  0.63666332  0.35120092  0.62485628     0.14200
C2289       C  0.85419938  0.22491245  0.60297350     0.86000
C2290       C  0.83991934  0.25337572  0.62310067    -0.54300
C2291       C  0.85662273  0.27767124  0.63814905     0.08900
C2292       C  0.88636972  0.27114587  0.63165305     0.19900
C2293       C  0.87182672  0.25417081  0.58579712    -0.55000
C2294       C  0.88824688  0.27855030  0.60078697     0.09000
C2295       C  0.87440435  0.20144633  0.62005959    -0.54500
C2296       C  0.89090131  0.22523546  0.63525755     0.09600
H2297       H  0.81831155  0.25464663  0.62489769     0.14100
H2298       H  0.90025100  0.28998113  0.64391987    -0.00200
H2299       H  0.87149508  0.25732942  0.56392011     0.14400
H2300       H  0.87566589  0.16841935  0.62007903     0.14200
C2301       C  0.63455422  0.71964064  0.64688811     0.86000
C2302       C  0.64973929  0.74705642  0.62647367    -0.54300
C2303       C  0.63422104  0.77469528  0.61284083     0.08900
C2304       C  0.60414846  0.77031937  0.61991797     0.19900
C2305       C  0.61867374  0.74899497  0.66501062    -0.55000
C2306       C  0.60287829  0.77557348  0.65107380     0.09000
C2307       C  0.61355214  0.69905492  0.62880256    -0.54500
C2308       C  0.59744027  0.72509926  0.61503482     0.09600
H2309       H  0.67105318  0.74472180  0.62299728     0.14100
H2310       H  0.59081079  0.79104161  0.60860397    -0.00200
H2311       H  0.62008464  0.74906683  0.68706213     0.14400
H2312       H  0.61176136  0.66636272  0.62614566     0.14200
C2313       C  0.60198728  0.29701150  0.89489623     0.86000
C2314       C  0.58809553  0.26705859  0.87504018    -0.54300
C2315       C  0.60511432  0.24179623  0.86088725     0.08900
C2316       C  0.63463416  0.24873175  0.86847448     0.19900
C2317       C  0.61834178  0.26901461  0.91335051    -0.55000
C2318       C  0.63526574  0.24383253  0.89964763     0.09000
C2319       C  0.62243654  0.31908643  0.87674123    -0.54500
C2320       C  0.63966545  0.29410790  0.86341186     0.09600
H2321       H  0.56677960  0.26521033  0.87210233     0.14100
H2322       H  0.64935468  0.22997810  0.85743691    -0.00200
H2323       H  0.61608491  0.26821404  0.93535361     0.14400
H2324       H  0.62361282  0.35203191  0.87496747     0.14200
C2325       C  0.88483048  0.80101225  0.85264594     0.86000
C2326       C  0.89950928  0.76960133  0.87019720    -0.54300
C2327       C  0.88324351  0.74364870  0.88463782     0.08900
C2328       C  0.85327139  0.75053501  0.87894556     0.19900
C2329       C  0.86768897  0.77389159  0.83398262    -0.55000
C2330       C  0.85143338  0.74721441  0.84762835     0.09000
C2331       C  0.86494201  0.82179216  0.87166885    -0.54500
C2332       C  0.84838258  0.79585296  0.88532447     0.09600
H2333       H  0.92110103  0.76711466  0.87049929     0.14100
H2334       H  0.83947952  0.73006864  0.89026742    -0.00200
H2335       H  0.86959718  0.77325073  0.81196732     0.14400
H2336       H  0.86377981  0.85466072  0.87389548     0.14200
C2337       C  0.59169986  0.14482400  0.81931710    -0.09700
C2338       C  0.56802929  0.15532687  0.80591961     0.06500
C2339       C  0.55932409  0.19618233  0.80749581    -0.03400
C2340       C  0.57258630  0.22364835  0.82451550    -0.07900
C2341       C  0.59494754  0.21219167  0.83996348     0.05600
C2342       C  0.60552616  0.17266534  0.83560621    -0.02900
Br2343     Br  0.63813038  0.15222994  0.85057751    -0.02600
H2344       H  0.59954536  0.11428011  0.81732621     0.09600
H2345       H  0.56504613  0.25443124  0.82581024     0.07600
Br2346     Br  0.52914139  0.21724900  0.78803141    -0.03000
C2347       C  0.59573567  0.17452629  0.64533558    -0.09700
C2348       C  0.59559865  0.21442734  0.65521973     0.06500
C2349       C  0.58074500  0.22323283  0.67887677    -0.03400
C2350       C  0.56763978  0.19177008  0.69298205    -0.07900
C2351       C  0.56826810  0.15120955  0.68354513     0.05600
C2352       C  0.58246470  0.14300735  0.65908621    -0.02900
Br2353     Br  0.58351661  0.09066696  0.64168995    -0.02600
H2354       H  0.60518225  0.16809550  0.62599609     0.09600
H2355       H  0.55666883  0.19932225  0.71134830     0.07600
Br2356     Br  0.57705478  0.27775598  0.69236988    -0.03000
C2357       C  0.89482167  0.84850168  0.81302181    -0.09700
C2358       C  0.90278849  0.83224688  0.83831373     0.06500
C2359       C  0.92536998  0.85024555  0.85114856    -0.03400
C2360       C  0.94168924  0.87741675  0.83668498    -0.07900
C2361       C  0.93448477  0.89070082  0.81078855     0.05600
C2362       C  0.91015497  0.87803636  0.79962566    -0.02900
Br2363     Br  0.89612132  0.90304685  0.76740130    -0.02600
H2364       H  0.87598661  0.83983815  0.80402985     0.09600
H2365       H  0.95939594  0.88987921  0.84623253     0.07600
Br2366     Br  0.93346321  0.84454333  0.88919514    -0.03000
C2367       C  0.55988807  0.81147768  0.66083250    -0.09700
C2368       C  0.58758517  0.80842085  0.66475099     0.06500
C2369       C  0.60067530  0.83812999  0.68062073    -0.03400
C2370       C  0.58614051  0.86985539  0.69233760    -0.07900
C2371       C  0.55847969  0.87265077  0.68886346     0.05600
C2372       C  0.54523497  0.84311185  0.67295915    -0.02900
Br2373     Br  0.50765157  0.84615302  0.66588568    -0.02600
H2374       H  0.54967568  0.78926786  0.64828322     0.09600
H2375       H  0.59655169  0.89263482  0.70425684     0.07600
Br2376     Br  0.63872864  0.83913032  0.68502268    -0.03000
C2377       C  0.93160717  0.88845863  0.65959103    -0.09700
C2378       C  0.93766249  0.88237355  0.68710634     0.06500
C2379       C  0.92840264  0.84647826  0.69992953    -0.03400
C2380       C  0.91093186  0.82031398  0.68619017    -0.07900
C2381       C  0.90323233  0.82771604  0.65906742     0.05600
C2382       C  0.91585882  0.86070178  0.64522108    -0.02900
Br2383     Br  0.91472710  0.86866582  0.60640474    -0.02600
H2384       H  0.94000883  0.91441587  0.64884631     0.09600
H2385       H  0.90450082  0.79316417  0.69676273     0.07600
Br2386     Br  0.93905190  0.83034863  0.73582131    -0.03000
C2387       C  0.93081672  0.18225286  0.63867665    -0.09700
C2388       C  0.91204508  0.20681281  0.65196079     0.06500
C2389       C  0.91140231  0.20783030  0.68065078    -0.03400
C2390       C  0.92891174  0.18323003  0.69548488    -0.07900
C2391       C  0.94640041  0.15663762  0.68201342     0.05600
C2392       C  0.94765628  0.15691426  0.65339402    -0.02900
Br2393     Br  0.97115006  0.12186488  0.63334203    -0.02600
H2394       H  0.93133933  0.18113419  0.61663125     0.09600
H2395       H  0.92751847  0.18268230  0.71749440     0.07600
Br2396     Br  0.88486220  0.23778496  0.70041575    -0.03000
C2397       C  0.59913134  0.83664079  0.81425665    -0.09700
C2398       C  0.58616808  0.81101681  0.83315407     0.06500
C2399       C  0.55908362  0.81816288  0.83956436    -0.03400
C2400       C  0.54578254  0.85117181  0.82782944    -0.07900
C2401       C  0.55911949  0.87747383  0.80978961     0.05600
C2402       C  0.58581778  0.86962914  0.80260982    -0.02900
Br2403     Br  0.60433658  0.90217130  0.77597520    -0.02600
H2404       H  0.61988239  0.83150290  0.80898044     0.09600
H2405       H  0.52492769  0.85624699  0.83270266     0.07600
Br2406     Br  0.53867697  0.78249284  0.86256618    -0.03000
C2407       C  0.80565863  0.13592838  0.58787124    -0.09700
C2408       C  0.80506325  0.13575217  0.55936933     0.06500
C2409       C  0.81863060  0.16684689  0.54514961    -0.03400
C2410       C  0.83343404  0.19607017  0.55921479    -0.07900
C2411       C  0.83519705  0.19578639  0.58785492     0.05600
C2412       C  0.81989581  0.16591410  0.60214691    -0.02900
Br2413     Br  0.81729273  0.16391569  0.64121447    -0.02600
H2414       H  0.79465593  0.11287177  0.59914063     0.09600
H2415       H  0.84355460  0.21848604  0.54695770     0.07600
Br2416     Br  0.81920230  0.17006437  0.50625732    -0.03000
C2417       C  0.68580500  0.18182865  0.55166657    -0.09700
C2418       C  0.68549956  0.14261298  0.56323758     0.06500
C2419       C  0.67272375  0.13739942  0.58880787    -0.03400
C2420       C  0.65877682  0.16973904  0.60069653    -0.07900
C2421       C  0.65761862  0.20821151  0.58825020     0.05600
C2422       C  0.67272866  0.21452682  0.56419058    -0.02900
Br2423     Br  0.67935959  0.26765125  0.54919078    -0.02600
H2424       H  0.69653518  0.18741468  0.53280593     0.09600
H2425       H  0.64917903  0.16458837  0.62012433     0.07600
Br2426     Br  0.67517292  0.08846582  0.61010009    -0.03000
C2427       C  0.66838811  0.79400164  0.57766353    -0.09700
C2428       C  0.64632669  0.80557967  0.59373338     0.06500
C2429       C  0.63832445  0.84687683  0.59276954    -0.03400
C2430       C  0.65262207  0.87499525  0.57686549    -0.07900
C2431       C  0.67545787  0.86382628  0.56194667     0.05600
C2432       C  0.68316670  0.82235640  0.56237141    -0.02900
Br2433     Br  0.71463074  0.80179221  0.54457891    -0.02600
H2434       H  0.67478545  0.76256030  0.57751805     0.09600
H2435       H  0.64606163  0.90637538  0.57679024     0.07600
Br2436     Br  0.60988070  0.86945966  0.61402722    -0.03000
C2437       C  0.80592665  0.83297345  0.89140114    -0.09700
C2438       C  0.82718794  0.81205094  0.90339250     0.06500
C2439       C  0.83064533  0.81436547  0.93179429    -0.03400
C2440       C  0.81389520  0.83942757  0.94747950    -0.07900
C2441       C  0.79394999  0.86275906  0.93502780     0.05600
C2442       C  0.78939716  0.85818974  0.90696489    -0.02900
Br2443     Br  0.76154907  0.88748131  0.88891641    -0.02600
H2444       H  0.80317703  0.83157638  0.86955940     0.09600
H2445       H  0.81763902  0.84284751  0.96906009     0.07600
Br2446     Br  0.85980741  0.78765765  0.94938811    -0.03000
C2447       C  0.65254222  0.14288259  0.93168329    -0.09700
C2448       C  0.67895020  0.14959291  0.94027773     0.06500
C2449       C  0.69059602  0.18863038  0.93606141    -0.03400
C2450       C  0.67626028  0.21878023  0.92230681    -0.07900
C2451       C  0.65012633  0.21144219  0.91360253     0.05600
C2452       C  0.63796504  0.17365876  0.91911854    -0.02900
Br2453     Br  0.60117977  0.16303115  0.91058144    -0.02600
H2454       H  0.64285386  0.11379937  0.93534497     0.09600
H2455       H  0.68541223  0.24828606  0.91867725     0.07600
Br2456     Br  0.72580622  0.20337450  0.94812413    -0.03000
C2457       C  0.78948469  0.83091584  0.57164248    -0.09700
C2458       C  0.80216363  0.85844999  0.55381743     0.06500
C2459       C  0.83015190  0.85762659  0.55111279    -0.03400
C2460       C  0.84511023  0.83256907  0.56805711    -0.07900
C2461       C  0.83265185  0.80822500  0.58794209     0.05600
C2462       C  0.80456979  0.80577189  0.58873108    -0.02900
Br2463     Br  0.78604084  0.77200059  0.61455323    -0.02600
H2464       H  0.76793816  0.83106675  0.57369268     0.09600
H2465       H  0.86671456  0.83394390  0.56685742     0.07600
Br2466     Br  0.84895577  0.89134892  0.52534414    -0.03000
C2467       C  0.65254518  0.88264419  0.91843718    -0.09700
C2468       C  0.67431857  0.87124475  0.93469571     0.06500
C2469       C  0.68249420  0.82993726  0.93407140    -0.03400
C2470       C  0.66880072  0.80183571  0.91787268    -0.07900
C2471       C  0.64742094  0.81353700  0.90128231     0.05600
C2472       C  0.63944157  0.85469294  0.90163858    -0.02900
Br2473     Br  0.61291867  0.87668324  0.87797162    -0.02600
H2474       H  0.64596111  0.91399850  0.91809553     0.09600
H2475       H  0.67529994  0.77042311  0.91792132     0.07600
Br2476     Br  0.71291950  0.80893047  0.95313675    -0.03000
C2477       C  0.90188983  0.19303328  0.81761724    -0.09700
C2478       C  0.91251241  0.21086624  0.84115166     0.06500
C2479       C  0.93991923  0.20620897  0.84667984    -0.03400
C2480       C  0.95600582  0.18270741  0.82927249    -0.07900
C2481       C  0.94496208  0.16314738  0.80653949     0.05600
C2482       C  0.91783964  0.16920151  0.80047350    -0.02900
Br2483     Br  0.90141793  0.14267182  0.77001053    -0.02600
H2484       H  0.88077871  0.19590906  0.81334481     0.09600
H2485       H  0.97666045  0.17732701  0.83457320     0.07600
Br2486     Br  0.95539366  0.22691416  0.87947625    -0.03000
C2487       C  0.81362556  0.18952543  0.90170456    -0.09700
C2488       C  0.84001268  0.19621262  0.91103760     0.06500
C2489       C  0.84963456  0.16962278  0.93156891    -0.03400
C2490       C  0.83255615  0.14081245  0.94355764    -0.07900
C2491       C  0.80593133  0.13707766  0.93551640     0.05600
C2492       C  0.79682160  0.16034133  0.91363177    -0.02900
Br2493     Br  0.76285858  0.14961880  0.89717228    -0.02600
H2494       H  0.80608192  0.20495267  0.88399570     0.09600
H2495       H  0.84018573  0.12086755  0.95925420     0.07600
Br2496     Br  0.88606528  0.16822251  0.94345667    -0.03000
C2497       C  0.55495675  0.34549104  0.55926525    -0.09700
C2498       C  0.56178957  0.38708308  0.55842382     0.06500
C2499       C  0.58616561  0.39907426  0.57063957    -0.03400
C2500       C  0.60181317  0.37070571  0.58437805    -0.07900
C2501       C  0.59417666  0.32954493  0.58718150     0.05600
C2502       C  0.57078536  0.31692826  0.57312506    -0.02900
Br2503     Br  0.55910265  0.26113037  0.57144647    -0.02600
H2504       H  0.53697563  0.33498334  0.54929186     0.09600
H2505       H  0.62057435  0.38176673  0.59199017     0.07600
Br2506     Br  0.60107921  0.45312492  0.56856053    -0.03000
C2507       C  0.55711338  0.69162882  0.55375363    -0.09700
C2508       C  0.54235924  0.65957084  0.56547184     0.06500
C2509       C  0.54217782  0.65484472  0.59395574    -0.03400
C2510       C  0.55856576  0.67931961  0.60995136    -0.07900
C2511       C  0.57540228  0.70880978  0.59812085     0.05600
C2512       C  0.57365728  0.71630048  0.56990754    -0.02900
Br2513     Br  0.59556054  0.75627175  0.55199005    -0.02600
H2514       H  0.55728302  0.69559486  0.53185590     0.09600
H2515       H  0.55932053  0.67371594  0.63168079     0.07600
Br2516     Br  0.52064523  0.61421779  0.61195982    -0.03000
C2517       C  0.89641125  0.71126968  0.56681150    -0.09700
C2518       C  0.89770067  0.71008158  0.59527886     0.06500
C2519       C  0.91208212  0.67887713  0.60816668    -0.03400
C2520       C  0.92538398  0.64988195  0.59251592    -0.07900
C2521       C  0.92481852  0.65162982  0.56401605     0.05600
C2522       C  0.90996575  0.68234164  0.55108579    -0.02900
Br2523     Br  0.90650775  0.68473305  0.51224222    -0.02600
H2524       H  0.88521974  0.73509725  0.55683715     0.09600
H2525       H  0.93654501  0.62615199  0.60264976     0.07600
Br2526     Br  0.91385193  0.67421600  0.64708425    -0.03000
C2527       C  0.56085351  0.69230111  0.94622914    -0.09700
C2528       C  0.54359209  0.66442869  0.93342198     0.06500
C2529       C  0.54145758  0.66504368  0.90490685    -0.03400
C2530       C  0.55817538  0.69031159  0.88953383    -0.07900
C2531       C  0.57719497  0.71550019  0.90206672     0.05600
C2532       C  0.57778123  0.71768068  0.93068597    -0.02900
Br2533     Br  0.60360723  0.75076008  0.94915998    -0.02600
H2534       H  0.56256789  0.69223507  0.96820413     0.09600
H2535       H  0.55743820  0.68853568  0.86752199     0.07600
Br2536     Br  0.51667593  0.63063035  0.88596636    -0.03000
C2537       C  0.91673307  0.72526524  0.91963309    -0.09700
C2538       C  0.89466039  0.71321009  0.90397065     0.06500
C2539       C  0.88564874  0.67247921  0.90616962    -0.03400
C2540       C  0.89916237  0.64503668  0.92297736    -0.07900
C2541       C  0.92196807  0.65668212  0.93777859     0.05600
C2542       C  0.93055762  0.69782102  0.93602309    -0.02900
Br2543     Br  0.96182936  0.71939058  0.95360085    -0.02600
H2544       H  0.92377166  0.75648372  0.91871930     0.09600
H2545       H  0.89200701  0.61387834  0.92388810     0.07600
Br2546     Br  0.85659019  0.65037361  0.88563455    -0.03000
C2547       C  0.58130958  0.38741546  0.94056116    -0.09700
C2548       C  0.55353928  0.38749630  0.93793789     0.06500
C2549       C  0.54115020  0.35698950  0.92245940    -0.03400
C2550       C  0.55656851  0.32736474  0.90934110    -0.07900
C2551       C  0.58474829  0.32736615  0.91110732     0.05600
C2552       C  0.59688973  0.35765592  0.92779632    -0.02900
Br2553     Br  0.63474951  0.36118668  0.93411543    -0.02600
H2554       H  0.59095292  0.41056756  0.95283037     0.09600
H2555       H  0.54589564  0.30495103  0.89768632     0.07600
Br2556     Br  0.50321750  0.35642977  0.91706384    -0.03000
C2557       C  0.93126871  0.31517797  0.59267585    -0.09700
C2558       C  0.90366186  0.31235913  0.58836135     0.06500
C2559       C  0.89074616  0.34310924  0.57334142    -0.03400
C2560       C  0.90567307  0.37490385  0.56199989    -0.07900
C2561       C  0.93338596  0.37697062  0.56544898     0.05600
C2562       C  0.94619865  0.34727212  0.58134013    -0.02900
Br2563     Br  0.98351000  0.35081596  0.58956510    -0.02600
H2564       H  0.94118269  0.29243674  0.60493294     0.09600
H2565       H  0.89556648  0.39823177  0.55039476     0.07600
Br2566     Br  0.85253469  0.34582278  0.57018136    -0.03000
C2567       C  0.93663240  0.33922161  0.94865886    -0.09700
C2568       C  0.93280535  0.37899126  0.93863737     0.06500
C2569       C  0.91794651  0.38382072  0.91438406    -0.03400
C2570       C  0.90739151  0.34970018  0.90130820    -0.07900
C2571       C  0.90983607  0.31053087  0.91227150     0.05600
C2572       C  0.92529863  0.30532142  0.93585941    -0.02900
Br2573     Br  0.93333092  0.25280022  0.95060818    -0.02600
H2574       H  0.94839132  0.33421232  0.96677370     0.09600
H2575       H  0.89623812  0.35423345  0.88278316     0.07600
Br2576     Br  0.91044835  0.43519773  0.89735871    -0.03000
C2577       C  0.83812828  0.65117131  0.80704586    -0.09700
C2578       C  0.81023707  0.64865991  0.80828712     0.06500
C2579       C  0.79578633  0.67924099  0.82201772    -0.03400
C2580       C  0.80948360  0.71116587  0.83483849    -0.07900
C2581       C  0.83740715  0.71372003  0.83345222     0.05600
C2582       C  0.85175058  0.68358846  0.81908113    -0.02900
Br2583     Br  0.89004323  0.68347501  0.81654505    -0.02600
H2584       H  0.84938849  0.62784706  0.79649611     0.09600
H2585       H  0.79833652  0.73410923  0.84585797     0.07600
Br2586     Br  0.75756506  0.67759795  0.82506163    -0.03000
C2587       C  0.68161132  0.33348607  0.86115387    -0.09700
C2588       C  0.66215485  0.31079864  0.84738211     0.06500
C2589       C  0.66237317  0.30988738  0.81872721    -0.03400
C2590       C  0.68046424  0.33457490  0.80433017    -0.07900
C2591       C  0.69826091  0.36014821  0.81825231     0.05600
C2592       C  0.69958275  0.35815590  0.84681688    -0.02900
Br2593     Br  0.72479843  0.38988109  0.86712780    -0.02600
H2594       H  0.68182833  0.33373151  0.88321496     0.09600
H2595       H  0.67940065  0.33587935  0.78231926     0.07600
Br2596     Br  0.63680485  0.27884564  0.79843929    -0.03000
C2597       C  0.82494801  0.29459918  0.67527855    -0.09700
C2598       C  0.84610592  0.30727029  0.65840101     0.06500
C2599       C  0.85477303  0.34824334  0.65989728    -0.03400
C2600       C  0.84105398  0.37572465  0.67640584    -0.07900
C2601       C  0.81859622  0.36380770  0.69176397     0.05600
C2602       C  0.81104203  0.32210772  0.69165878    -0.02900
Br2603     Br  0.78095810  0.29986518  0.71123918    -0.02600
H2604       H  0.81851142  0.26304086  0.67499897     0.09600
H2605       H  0.84770501  0.40717195  0.67657216     0.07600
Br2606     Br  0.88357420  0.37102313  0.63902666    -0.03000
C2607       C  0.69247944  0.66971743  0.68710634    -0.09700
C2608       C  0.68236182  0.63031926  0.69202680     0.06500
C2609       C  0.65557926  0.62219381  0.68495424    -0.03400
C2610       C  0.64068582  0.65147751  0.67109951    -0.07900
C2611       C  0.65159809  0.68964488  0.66354069     0.05600
C2612       C  0.67720164  0.69956053  0.67397924    -0.02900
Br2613     Br  0.69191880  0.75373623  0.67378610    -0.02600
H2614       H  0.71238146  0.67770255  0.69385931     0.09600
H2615       H  0.62000526  0.64429416  0.66705959     0.07600
Br2616     Br  0.63695198  0.57337493  0.69560089    -0.03000
C2617       C  0.80491064  0.68249001  0.69402956    -0.09700
C2618       C  0.80931718  0.64215758  0.68528760     0.06500
C2619       C  0.82707744  0.63601603  0.66299033    -0.03400
C2620       C  0.83961371  0.66938989  0.65045366    -0.07900
C2621       C  0.83573372  0.70919461  0.65982400     0.05600
C2622       C  0.81797734  0.71563638  0.68176923    -0.02900
Br2623     Br  0.80989359  0.76897239  0.69541689    -0.01400
H2624       H  0.79144570  0.68854876  0.71086120     0.09600
H2625       H  0.85324046  0.66397382  0.63365068     0.07600
Br2626     Br  0.83609970  0.58363504  0.64818165    -0.03000
C2627       C  0.82616977  0.37986271  0.84325229    -0.09700
C2628       C  0.82309108  0.37344161  0.81521933     0.06500
C2629       C  0.83497616  0.33902176  0.80308698    -0.03400
C2630       C  0.84911300  0.31138188  0.81916558    -0.07900
C2631       C  0.85102412  0.31692994  0.84734715     0.05600
C2632       C  0.83958451  0.35172021  0.85939886    -0.02900
Br2633     Br  0.84045037  0.36164496  0.89788098    -0.02600
H2634       H  0.81716550  0.40617290  0.85285948     0.09600
H2635       H  0.85765891  0.28451586  0.80982594     0.07600
Br2636     Br  0.83286165  0.32839119  0.76481529    -0.03000
C2637       C  0.68438964  0.67298155  0.80087810    -0.09700
C2638       C  0.68753195  0.63453069  0.81306036     0.06500
C2639       C  0.67518097  0.62741144  0.83856222    -0.03400
C2640       C  0.65932567  0.65737314  0.85032828    -0.07900
C2641       C  0.65387791  0.69453699  0.83707891     0.05600
C2642       C  0.66844466  0.70314582  0.81286043    -0.02900
Br2643     Br  0.66989171  0.75588733  0.79597150    -0.02600
H2644       H  0.69458401  0.67992417  0.78190861     0.09600
H2645       H  0.65182887  0.65131057  0.87059259     0.07600
Br2646     Br  0.67950713  0.57859619  0.85979866    -0.03000
C2647       C  0.68724680  0.32449139  0.69918026    -0.09700
C2648       C  0.70291043  0.35560057  0.68765184     0.06500
C2649       C  0.70455711  0.35894673  0.65911894    -0.03400
C2650       C  0.68858592  0.33419102  0.64274706    -0.07900
C2651       C  0.67027846  0.30643380  0.65428684     0.05600
C2652       C  0.67076094  0.30014234  0.68274801    -0.02900
Br2653     Br  0.64697036  0.26317696  0.70084163    -0.02600
H2654       H  0.68599162  0.32154194  0.72112409     0.09600
H2655       H  0.68893382  0.33891582  0.62091093     0.07600
Br2656     Br  0.72682513  0.39917343  0.64163351    -0.03000
loop_ 
_geom_bond_atom_site_label_1 
_geom_bond_atom_site_label_2 
_geom_bond_distance 
_geom_bond_site_symmetry_2 
_ccdc_geom_bond_type 
O1          Zr13   2.439       .  S
O1            C3   1.288       .  A
O2          Zr39   2.431       .  S
O2            C3   1.287       .  A
C3          C599   1.473       .  S
O4          Zr16   2.445       .  S
O4            C6   1.288       .  A
O5          Zr40   2.425       .  S
O5            C6   1.287       .  A
C6          C616   1.492       .  S
O7          Zr16   2.429       .  S
O7            C9   1.286       .  A
O8          Zr39   2.445       .  S
O8            C9   1.289       .  A
C9          C656   1.473       .  S
O10         Zr13   2.436       .  S
O10          C12   1.286       .  A
O11         Zr40   2.429       .  S
O11          C12   1.288       .  A
C12         C646   1.490       .  S
Zr13         O14   2.435       .  S
Zr13         O15   2.432       .  S
Zr13         O19   2.374       .  S
Zr13         O20   2.371       .  S
Zr13         O43   2.369       .  S
Zr13         O45   2.365       .  S
O14          H57   0.990       .  S
O15          H56   0.989       .  S
O15          H60   0.990       .  S
Zr16         O17   2.435       .  S
Zr16         O18   2.433       .  S
Zr16         O20   2.360       .  S
Zr16         O19   2.372       .  S
Zr16         O44   2.373       .  S
Zr16         O46   2.371       .  S
O17          H58   0.990       .  S
O17          H61   0.990       .  S
O18          H51   0.990       .  S
O19         Zr39   2.380       .  S
O20         Zr40   2.379       .  S
O20          H47   0.964       .  S
O21         Zr33   2.451       .  S
O21          C23   1.290       .  A
O22         Zr40   2.421       .  S
O22          C23   1.285       .  A
C23         C586   1.473       .  S
O24         Zr36   2.458       .  S
O24          C26   1.292       .  A
O25         Zr39   2.407       .  S
O25          C26   1.282       .  A
C26         C609   1.489       .  S
O27         Zr36   2.455       .  S
O27          C29   1.290       .  A
O28         Zr40   2.424       .  S
O28          C29   1.288       .  A
C29         C626   1.496       .  S
O30         Zr33   2.449       .  S
O30          C32   1.290       .  A
O31         Zr39   2.427       .  S
O31          C32   1.287       .  A
C32         C636   1.479       .  S
Zr33         O34   2.435       .  S
Zr33         O35   2.434       .  S
Zr33         O41   2.368       .  S
Zr33         O42   2.372       .  S
Zr33         O45   2.370       .  S
Zr33         O43   2.371       .  S
O34          H54   0.990       .  S
O34          H59   0.990       .  S
O35          H55   0.990       .  S
Zr36         O37   2.433       .  S
Zr36         O38   2.435       .  S
Zr36         O42   2.370       .  S
Zr36         O41   2.371       .  S
Zr36         O46   2.374       .  S
Zr36         O44   2.363       .  S
O37          H53   0.990       .  S
O38          H52   0.990       .  S
O38          H62   0.990       .  S
Zr39         O42   2.386       .  S
Zr39         O44   2.387       .  S
Zr39         O45   2.381       .  S
Zr40         O41   2.387       .  S
Zr40         O43   2.378       .  S
Zr40         O46   2.383       .  S
O41          H49   0.970       .  S
O44          H48   0.963       .  S
O45          H50   0.965       .  S
O63         Zr75   2.425       .  S
O63          C65   1.283       .  A
O64        Zr765   2.432       .  S
O64          C65   1.290       .  A
C65         C576   1.489       .  S
O66         Zr78   2.453       .  S
O66          C68   1.291       .  A
O67       Zr2094   2.417   1_455  S
O67          C68   1.284       .  A
C68         C536   1.471       .  S
O69         Zr78   2.452       .  S
O69          C71   1.290       .  A
O70       Zr2093   2.411   1_455  S
O70          C71   1.284       .  A
C71         C556   1.467       .  S
O72         Zr75   2.445       .  S
O72          C74   1.289       .  A
O73        Zr766   2.424       .  S
O73          C74   1.284       .  A
C74         C549   1.495       .  S
Zr75         O76   2.435       .  S
Zr75         O77   2.436       .  S
Zr75         O81   2.374       .  S
Zr75         O82   2.363       .  S
Zr75        O769   2.365       .  S
Zr75        O771   2.376       .  S
O76         H119   0.990       .  S
O77         H118   0.990       .  S
O77         H122   0.990       .  S
Zr78         O79   2.435       .  S
Zr78         O80   2.436       .  S
Zr78       O1410   2.370   1_455  S
Zr78       O1409   2.368   1_455  S
Zr78        O770   2.370       .  S
Zr78        O772   2.373       .  S
O79         H120   0.990       .  S
O79         H123   0.990       .  S
O80         H113   0.990       .  S
O81       Zr1406   2.365       .  S
O81        Zr765   2.386       .  S
O82       Zr1406   2.373       .  S
O82        Zr766   2.385       .  S
O82         H109   0.965       .  S
O83         Zr95   2.439       .  S
O83          C85   1.288       .  A
O84        Zr102   2.435   1_554  S
O84          C85   1.288       .  A
C85         C529   1.487       .  S
O86         Zr98   2.432       .  S
O86          C88   1.284       .  A
O87       Zr1429   2.435   1_455  S
O87          C88   1.288       .  A
C88         C506   1.494       .  S
O89         Zr98   2.437       .  S
O89          C91   1.287       .  A
O90       Zr1430   2.432   1_454  S
O90          C91   1.286       .  A
C91         C516   1.468       .  S
O92         Zr95   2.444       .  S
O92          C94   1.288       .  A
O93        Zr101   2.440       .  S
O93          C94   1.289       .  A
C94         C569   1.480       .  S
Zr95         O96   2.437       .  S
Zr95         O97   2.432       .  S
Zr95        O103   2.368       .  S
Zr95        O104   2.370       .  S
Zr95        O107   2.371       .  S
Zr95        O105   2.377       .  S
O96         H116   0.990       .  S
O96         H121   0.990       .  S
O97         H117   0.990       .  S
Zr98         O99   2.434       .  S
Zr98        O100   2.437       .  S
Zr98        O108   2.365   1_554  S
Zr98        O106   2.365   1_554  S
Zr98       O1432   2.377   1_455  S
Zr98       O1431   2.370   1_455  S
O99         H115   0.990       .  S
O100        H114   0.990       .  S
O100        H124   0.990       .  S
Zr101       O728   2.428   1_554  S
Zr101      O2062   2.420   1_554  S
Zr101      O1415   2.441       .  S
Zr101       O104   2.383       .  S
Zr101       O107   2.386       .  S
Zr101       O745   2.390   1_554  S
Zr101      O1434   2.387   1_554  S
Zr102      O2059   2.429       .  S
Zr102       O737   2.421       .  S
Zr102      O1418   2.422   1_556  S
Zr102       O103   2.384   1_556  S
Zr102       O105   2.383   1_556  S
Zr102       O746   2.389       .  S
Zr102      O1436   2.385       .  S
O103      Zr1426   2.367       .  S
O103        H111   0.966       .  S
O104      Zr1426   2.377       .  S
O105       Zr739   2.369   1_554  S
O106       Zr742   2.369       .  S
O106      Zr1429   2.386   1_456  S
O106        H110   0.963       .  S
O107       Zr739   2.375   1_554  S
O107        H112   0.969       .  S
O108       Zr742   2.377       .  S
O108      Zr1430   2.385   1_455  S
C125        C126   1.542       .  S
C125        C131   1.532       .  S
C125        C129   1.546       .  S
C125        C496   1.540       .  S
C126        H133   1.085       .  S
C126        C127   1.373       .  D
C127        C128   1.543       .  S
C127        C579   1.485       .  S
C128        C132   1.536       .  S
C128        C130   1.536       .  S
C128        H134   1.111       .  S
C129        H135   1.082       .  S
C129        C130   1.359       .  D
C130        C639   1.476       .  S
C131        H136   1.087       .  S
C131        C132   1.363       .  D
C132        C486   1.479       .  S
O137       Zr149   2.428   1_545  S
O137        C139   1.283       .  A
O138       Zr839   2.441       .  S
O138        C139   1.289       .  A
C139        C499   1.468       .  S
O140       Zr152   2.435   1_565  S
O140        C142   1.288       .  A
O141       Zr840   2.418       .  S
O141        C142   1.283       .  A
C142        C476   1.491       .  S
O143       Zr152   2.463       .  S
O143        C145   1.293       .  A
O144       Zr839   2.419       .  S
O144        C145   1.284       .  A
C145        C456   1.497       .  S
O146       Zr149   2.430       .  S
O146        C148   1.285       .  A
O147       Zr840   2.433       .  S
O147        C148   1.286       .  A
C148        C449   1.471       .  S
Zr149       O150   2.435       .  S
Zr149       O151   2.435       .  S
Zr149       O155   2.380   1_565  S
Zr149       O156   2.367       .  S
Zr149       O843   2.365       .  S
Zr149       O845   2.373   1_565  S
O150        H193   0.990   1_565  S
O151        H192   0.990   1_565  S
O151        H196   0.990   1_565  S
Zr152       O153   2.435       .  S
Zr152       O154   2.435       .  S
Zr152       O156   2.383   1_545  S
Zr152       O155   2.376       .  S
Zr152       O844   2.363       .  S
Zr152       O846   2.377   1_545  S
O153        H194   0.990       .  S
O153        H197   0.991       .  S
O154        H187   0.990       .  S
O155       Zr839   2.382       .  S
O156       Zr840   2.387       .  S
O156        H183   0.967       .  S
O157       Zr169   2.446   1_565  S
O157        C159   1.290       .  A
O158       Zr176   2.426   1_554  S
O158        C159   1.285       .  A
C159        C466   1.474       .  S
O160       Zr172   2.446       .  S
O160        C162   1.288       .  A
O161       Zr175   2.427   1_554  S
O161        C162   1.288       .  A
C162        C426   1.490       .  S
O163       Zr172   2.455   1_565  S
O163        C165   1.292       .  A
O164       Zr176   2.398   1_554  S
O164        C165   1.280       .  A
C165        C439   1.487       .  S
O166       Zr169   2.453       .  S
O166        C168   1.290       .  A
O167       Zr175   2.417   1_554  S
O167        C168   1.285       .  A
C168        C416   1.477       .  S
Zr169       O170   2.437   1_545  S
Zr169       O171   2.432       .  S
Zr169       O177   2.370   1_545  S
Zr169       O178   2.369       .  S
Zr169       O181   2.365   1_554  S
Zr169       O179   2.373   1_544  S
O170        H190   0.990   1_565  S
O170        H195   0.990   1_565  S
O171        H191   0.990   1_545  S
Zr172       O173   2.434       .  S
Zr172       O174   2.436       .  S
Zr172       O178   2.374       .  S
Zr172       O177   2.367   1_545  S
Zr172       O182   2.371   1_545  S
Zr172       O180   2.372       .  S
O173        H189   0.990       .  S
O174        H188   0.990   1_545  S
O174        H198   0.990       .  S
Zr175       O802   2.440       .  S
Zr175       O808   2.415       .  S
Zr175       O178   2.382   1_556  S
Zr175       O180   2.385   1_556  S
Zr175       O181   2.380       .  S
Zr175       O819   2.381       .  S
Zr176       O805   2.411       .  S
Zr176       O811   2.429       .  S
Zr176       O177   2.388   1_556  S
Zr176       O179   2.373       .  S
Zr176       O182   2.386   1_556  S
Zr176       O820   2.382       .  S
O177        H185   0.965       .  S
O179       Zr813   2.365   1_565  S
O180       Zr816   2.365   1_554  S
O180        H184   0.964       .  S
O181       Zr813   2.376       .  S
O181        H186   0.968       .  S
O182       Zr816   2.375   1_564  S
C199        C200   1.541       .  S
C199        C205   1.538       .  S
C199        C203   1.529       .  S
C199        C649   1.535       .  S
C200        H207   1.085       .  S
C200        C201   1.369       .  D
C201        C202   1.545       .  S
C201        C406   1.482       .  S
C202        C206   1.535       .  S
C202        C204   1.545       .  S
C202        H208   1.109       .  S
C203        H209   1.087       .  S
C203        C204   1.367       .  D
C204        C479   1.487       .  S
C205        H210   1.085       .  S
C205        C206   1.359       .  D
C206        C539   1.477       .  S
O211       Zr223   2.441       .  S
O211        C213   1.288       .  A
O212      Zr1577   2.426       .  S
O212        C213   1.286       .  A
C213        C399   1.471       .  S
O214       Zr226   2.425   1_565  S
O214        C216   1.283       .  A
O215       Zr250   2.411       .  S
O215        C216   1.283       .  A
C216        C369   1.452       .  S
O217       Zr226   2.429       .  S
O217        C219   1.286       .  A
O218      Zr1577   2.428       .  S
O218        C219   1.285       .  A
C219        C489   1.467       .  S
O220       Zr223   2.442   1_565  S
O220        C222   1.289       .  A
O221       Zr250   2.418       .  S
O221        C222   1.283       .  A
C222        C386   1.482       .  S
Zr223       O224   2.433       .  S
Zr223       O225   2.437       .  S
Zr223       O229   2.374       .  S
Zr223       O230   2.363   1_545  S
Zr223       O253   2.368   1_545  S
Zr223      O1583   2.368       .  S
O224        H267   0.990       .  S
O225        H266   0.990       .  S
O225        H270   0.990       .  S
Zr226       O227   2.437       .  S
Zr226       O228   2.434       .  S
Zr226       O230   2.370   1_545  S
Zr226       O229   2.369       .  S
Zr226       O256   2.372   1_545  S
Zr226      O1582   2.369       .  S
O227        H268   0.990       .  S
O227        H271   0.990       .  S
O228        H261   0.990       .  S
O229      Zr1577   2.377       .  S
O230       Zr250   2.378       .  S
O230        H257   0.964       .  S
O231       Zr243   2.452   1_565  S
O231        C233   1.290       .  A
O232      Zr1578   2.415       .  S
O232        C233   1.284       .  A
C233        C379   1.472       .  S
O234       Zr246   2.444       .  S
O234        C236   1.289       .  A
O235       Zr249   2.421       .  S
O235        C236   1.284       .  A
C236        C346   1.492       .  S
O237       Zr246   2.455   1_565  S
O237        C239   1.290       .  A
O238      Zr1578   2.414       .  S
O238        C239   1.284       .  A
C239        C409   1.473       .  S
O240       Zr243   2.459       .  S
O240        C242   1.290       .  A
O241       Zr249   2.413       .  S
O241        C242   1.285       .  A
C242        C359   1.495       .  S
Zr243       O244   2.435       .  S
Zr243       O245   2.435       .  S
Zr243       O251   2.372   1_545  S
Zr243       O252   2.368       .  S
Zr243       O255   2.372       .  S
Zr243      O1581   2.377   1_545  S
O244        H264   0.990   1_545  S
O244        H269   0.990       .  S
O245        H265   0.990       .  S
Zr246       O247   2.435       .  S
Zr246       O248   2.438       .  S
Zr246       O252   2.378       .  S
Zr246       O251   2.371   1_545  S
Zr246       O254   2.374       .  S
Zr246      O1584   2.372   1_545  S
O247        H263   0.990       .  S
O248        H262   0.990       .  S
O248        H272   0.990       .  S
Zr249      O1540   2.433   1_455  S
Zr249      O1546   2.424   1_455  S
Zr249       O252   2.385       .  S
Zr249       O254   2.385       .  S
Zr249       O255   2.388       .  S
Zr249      O1557   2.377   1_455  S
Zr250      O1560   2.413       .  S
Zr250      O1566   2.418       .  S
Zr250       O253   2.380       .  S
Zr250       O256   2.380       .  S
Zr250      O1579   2.385       .  S
O251      Zr1578   2.388       .  S
O251        H259   0.964       .  S
O253      Zr1571   2.373   1_565  S
O254      Zr1554   2.369   1_455  S
O254        H258   0.964       .  S
O255      Zr1551   2.372   1_455  S
O255        H260   0.963       .  S
O256      Zr1574   2.373   1_565  S
C273        C274   1.547       .  S
C273        C279   1.532       .  S
C273        C277   1.530       .  S
C273        C389   1.531       .  S
C274        H281   1.082       .  S
C274        C275   1.372       .  D
C275        C276   1.548       .  S
C275        C629   1.492       .  S
C276        C280   1.541       .  S
C276        C278   1.543       .  S
C276        H282   1.110       .  S
C277        H283   1.087       .  S
C277        C278   1.359       .  D
C278        C526   1.480       .  S
C279        H284   1.086       .  S
C279        C280   1.361       .  D
C280        C469   1.480       .  S
C285        C286   1.538       .  S
C285        C291   1.548       .  S
C285        C289   1.533       .  S
C285        C509   1.540       .  S
C286        H293   1.085       .  S
C286        C287   1.371       .  D
C287        C288   1.544       .  S
C287        C429   1.494       .  S
C288        C292   1.533       .  S
C288        C290   1.545       .  S
C288        H294   1.109       .  S
C289        H295   1.086       .  S
C289        C290   1.363       .  D
C290        C356   1.478       .  S
C291        H296   1.080       .  S
C291        C292   1.360       .  D
C292        C659   1.487       .  S
C297        C298   1.536       .  S
C297        C303   1.529       .  S
C297        C301   1.546       .  S
C297        C419   1.538       .  S
C298        H305   1.086       .  S
C298        C299   1.373       .  D
C299        C300   1.544       .  S
C299        C606   1.498       .  S
C300        C304   1.540       .  S
C300        C302   1.542       .  S
C300        H306   1.107       .  S
C301        H307   1.080       .  S
C301        C302   1.365       .  D
C302        C566   1.482       .  S
C303        H308   1.087       .  S
C303        C304   1.360       .  D
C304        C396   1.480       .  S
C309        C310   1.543       .  S
C309        C315   1.540       .  S
C309        C313   1.534       .  S
C309        C619   1.542       .  S
C310        H317   1.084       .  S
C310        C311   1.376       .  D
C311        C312   1.545       .  S
C311        C436   1.500       .  S
C312        C316   1.536       .  S
C312        C314   1.539       .  S
C312        H318   1.108       .  S
C313        H319   1.086       .  S
C313        C314   1.365       .  D
C314        C376   1.476       .  S
C315        H320   1.084       .  S
C315        C316   1.359       .  D
C316        C519   1.477       .  S
C321        C322   1.546       .  S
C321        C327   1.532       .  S
C321        C325   1.535       .  S
C321        C559   1.536       .  S
C322        H329   1.080       .  S
C322        C323   1.377       .  D
C323        C324   1.547       .  S
C323        C349   1.504       .  S
C324        C328   1.534       .  S
C324        C326   1.541       .  S
C324        H330   1.102       .  S
C325        H331   1.086       .  S
C325        C326   1.363       .  D
C326        C459   1.476       .  S
C327        H332   1.087       .  S
C327        C328   1.358       .  D
C328        C596   1.480       .  S
C333        C334   1.539       .  S
C333        C339   1.521       .  S
C333        C337   1.540       .  S
C333        C366   1.526       .  S
C334        H341   1.085       .  S
C334        C335   1.367       .  D
C335        C336   1.545       .  S
C335        C546   1.492       .  S
C336        C340   1.545       .  S
C336        C338   1.548       .  S
C336        H342   1.109       .  S
C337        H343   1.084       .  S
C337        C338   1.366       .  D
C338        C589   1.486       .  S
C339        H344   1.087       .  S
C339        C340   1.359       .  D
C340        C446   1.480       .  S
C345        C346   1.406       .  A
C345        C350   1.400       .  A
C345        H352   1.084       .  S
C346        C347   1.415       .  A
C347        C348   1.398       .  A
C347       Br354   1.924       .  S
C348        C349   1.409       .  A
C348        H353   1.083       .  S
C349        C350   1.418       .  A
C350       Br351   1.919       .  S
C355        C356   1.397       .  A
C355        C360   1.397       .  A
C355        H362   1.079       .  S
C356        C357   1.405       .  A
C357        C358   1.401       .  A
C357       Br364   1.921       .  S
C358        C359   1.414       .  A
C358        H363   1.083       .  S
C359        C360   1.419       .  A
C360       Br361   1.921       .  S
C365        C366   1.414       .  A
C365        C370   1.394       .  A
C365        H372   1.079       .  S
C366        C367   1.425       .  A
C367        C368   1.394       .  A
C367       Br374   1.924       .  S
C368        C369   1.392       .  A
C368        H373   1.084       .  S
C369        C370   1.399       .  A
C370       Br371   1.923       .  S
C375        C376   1.402       .  A
C375        C380   1.402       .  A
C375        H382   1.084       .  S
C376        C377   1.409       .  A
C377        C378   1.395       .  A
C377       Br384   1.920       .  S
C378        C379   1.401       .  A
C378        H383   1.084       .  S
C379        C380   1.411       .  A
C380       Br381   1.920       .  S
C385        C386   1.400       .  A
C385        C390   1.393       .  A
C385        H392   1.084       .  S
C386        C387   1.413       .  A
C387        C388   1.400       .  A
C387       Br394   1.920       .  S
C388        C389   1.410       .  A
C388        H393   1.079       .  S
C389        C390   1.422       .  A
C390       Br391   1.927       .  S
C395        C396   1.402       .  A
C395        C400   1.395       .  A
C395        H402   1.084       .  S
C396        C397   1.411       .  A
C397        C398   1.404       .  A
C397       Br404   1.917       .  S
C398        C399   1.403       .  A
C398        H403   1.083       .  S
C399        C400   1.406       .  A
C400       Br401   1.919       .  S
C405        C406   1.404       .  A
C405        C410   1.399       .  A
C405        H412   1.084       .  S
C406        C407   1.409       .  A
C407        C408   1.400       .  A
C407       Br414   1.915       .  S
C408        C409   1.403       .  A
C408        H413   1.084       .  S
C409        C410   1.408       .  A
C410       Br411   1.919       .  S
C415        C416   1.400       .  A
C415        C420   1.400       .  A
C415        H422   1.084       .  S
C416        C417   1.406       .  A
C417        C418   1.397       .  A
C417       Br424   1.917       .  S
C418        C419   1.411       .  A
C418        H423   1.074       .  S
C419        C420   1.424       .  A
C420       Br421   1.925       .  S
C425        C426   1.408       .  A
C425        C430   1.400       .  A
C425        H432   1.083       .  S
C426        C427   1.415       .  A
C427        C428   1.395       .  A
C427       Br434   1.921       .  S
C428        C429   1.403       .  A
C428        H433   1.077       .  S
C429        C430   1.414       .  A
C430       Br431   1.921       .  S
C435        C436   1.407       .  A
C435        C440   1.399       .  A
C435        H442   1.083       .  S
C436        C437   1.419       .  A
C437        C438   1.396       .  A
C437       Br444   1.914       .  S
C438        C439   1.401       .  A
C438        H443   1.084       .  S
C439        C440   1.417       .  A
C440       Br441   1.923       .  S
C445        C446   1.404       .  A
C445        C450   1.404       .  A
C445        H452   1.083       .  S
C446        C447   1.411       .  A
C447        C448   1.395       .  A
C447       Br454   1.920       .  S
C448        C449   1.400       .  A
C448        H453   1.084       .  S
C449        C450   1.408       .  A
C450       Br451   1.918       .  S
C455        C456   1.410       .  A
C455        C460   1.400       .  A
C455        H462   1.083       .  S
C456        C457   1.423       .  A
C457        C458   1.402       .  A
C457       Br464   1.922       .  S
C458        C459   1.397       .  A
C458        H463   1.084       .  S
C459        C460   1.404       .  A
C460       Br461   1.921       .  S
C465        C466   1.406       .  A
C465        C470   1.406       .  A
C465        H472   1.083       .  S
C466        C467   1.406       .  A
C467        C468   1.395       .  A
C467       Br474   1.920       .  S
C468        C469   1.403       .  A
C468        H473   1.084       .  S
C469        C470   1.408       .  A
C470       Br471   1.917       .  S
C475        C476   1.408       .  A
C475        C480   1.395       .  A
C475        H482   1.083       .  S
C476        C477   1.418       .  A
C477        C478   1.399       .  A
C477       Br484   1.923       .  S
C478        C479   1.405       .  A
C478        H483   1.084       .  S
C479        C480   1.408       .  A
C480       Br481   1.913       .  S
C485        C486   1.402       .  A
C485        C490   1.395       .  A
C485        H492   1.084       .  S
C486        C487   1.411       .  A
C487        C488   1.403       .  A
C487       Br494   1.916       .  S
C488        C489   1.402       .  A
C488        H493   1.084       .  S
C489        C490   1.405       .  A
C490       Br491   1.921       .  S
C495        C496   1.416       .  A
C495        C500   1.395       .  A
C495        H502   1.075       .  S
C496        C497   1.423       .  A
C497        C498   1.402       .  A
C497       Br504   1.918       .  S
C498        C499   1.399       .  A
C498        H503   1.084       .  S
C499        C500   1.397       .  A
C500       Br501   1.918       .  S
C505        C506   1.409       .  A
C505        C510   1.406       .  A
C505        H512   1.083       .  S
C506        C507   1.417       .  A
C507        C508   1.390       .  A
C507       Br514   1.927       .  S
C508        C509   1.407       .  A
C508        H513   1.073       .  S
C509        C510   1.420       .  A
C510       Br511   1.923       .  S
C515        C516   1.402       .  A
C515        C520   1.402       .  A
C515        H522   1.084       .  S
C516        C517   1.407       .  A
C517        C518   1.397       .  A
C517       Br524   1.920       .  S
C518        C519   1.402       .  A
C518        H523   1.084       .  S
C519        C520   1.409       .  A
C520       Br521   1.917       .  S
C525        C526   1.401       .  A
C525        C530   1.405       .  A
C525        H532   1.084       .  S
C526        C527   1.408       .  A
C527        C528   1.397       .  A
C527       Br534   1.919       .  S
C528        C529   1.406       .  A
C528        H533   1.084       .  S
C529        C530   1.415       .  A
C530       Br531   1.917       .  S
C535        C536   1.405       .  A
C535        C540   1.404       .  A
C535        H542   1.084       .  S
C536        C537   1.405       .  A
C537        C538   1.391       .  A
C537       Br544   1.918       .  S
C538        C539   1.402       .  A
C538        H543   1.084       .  S
C539        C540   1.409       .  A
C540       Br541   1.917       .  S
C545        C546   1.405       .  A
C545        C550   1.399       .  A
C545        H552   1.083       .  S
C546        C547   1.409       .  A
C547        C548   1.400       .  A
C547       Br554   1.914       .  S
C548        C549   1.410       .  A
C548        H553   1.083       .  S
C549        C550   1.419       .  A
C550       Br551   1.925       .  S
C555        C556   1.394       .  A
C555        C560   1.395       .  A
C555        H562   1.084       .  S
C556        C557   1.404       .  A
C557        C558   1.402       .  A
C557       Br564   1.920       .  S
C558        C559   1.415       .  A
C558        H563   1.076       .  S
C559        C560   1.423       .  A
C560       Br561   1.926       .  S
C565        C566   1.401       .  A
C565        C570   1.404       .  A
C565        H572   1.083       .  S
C566        C567   1.412       .  A
C567        C568   1.398       .  A
C567       Br574   1.923       .  S
C568        C569   1.403       .  A
C568        H573   1.084       .  S
C569        C570   1.411       .  A
C570       Br571   1.917       .  S
C575        C576   1.407       .  A
C575        C580   1.396       .  A
C575        H582   1.083       .  S
C576        C577   1.421       .  A
C577        C578   1.397       .  A
C577       Br584   1.925       .  S
C578        C579   1.401       .  A
C578        H583   1.083       .  S
C579        C580   1.409       .  A
C580       Br581   1.914       .  S
C585        C586   1.398       .  A
C585        C590   1.396       .  A
C585        H592   1.084       .  S
C586        C587   1.410       .  A
C587        C588   1.406       .  A
C587       Br594   1.919       .  S
C588        C589   1.404       .  A
C588        H593   1.083       .  S
C589        C590   1.416       .  A
C590       Br591   1.923       .  S
C595        C596   1.404       .  A
C595        C600   1.396       .  A
C595        H602   1.084       .  S
C596        C597   1.410       .  A
C597        C598   1.400       .  A
C597       Br604   1.915       .  S
C598        C599   1.402       .  A
C598        H603   1.084       .  S
C599        C600   1.409       .  A
C600       Br601   1.919       .  S
C605        C606   1.406       .  A
C605        C610   1.397       .  A
C605        H612   1.083       .  S
C606        C607   1.418       .  A
C607        C608   1.399       .  A
C607       Br614   1.917       .  S
C608        C609   1.404       .  A
C608        H613   1.084       .  S
C609        C610   1.417       .  A
C610       Br611   1.924       .  S
C615        C616   1.406       .  A
C615        C620   1.404       .  A
C615        H622   1.083       .  S
C616        C617   1.413       .  A
C617        C618   1.397       .  A
C617       Br624   1.925       .  S
C618        C619   1.412       .  A
C618        H623   1.078       .  S
C619        C620   1.420       .  A
C620       Br621   1.921       .  S
C625        C626   1.410       .  A
C625        C630   1.402       .  A
C625        H632   1.083       .  S
C626        C627   1.418       .  A
C627        C628   1.398       .  A
C627       Br634   1.920       .  S
C628        C629   1.401       .  A
C628        H633   1.082       .  S
C629        C630   1.413       .  A
C630       Br631   1.922       .  S
C635        C636   1.404       .  A
C635        C640   1.398       .  A
C635        H642   1.084       .  S
C636        C637   1.413       .  A
C637        C638   1.402       .  A
C637       Br644   1.917       .  S
C638        C639   1.400       .  A
C638        H643   1.084       .  S
C639        C640   1.409       .  A
C640       Br641   1.920       .  S
C645        C646   1.409       .  A
C645        C650   1.404       .  A
C645        H652   1.083       .  S
C646        C647   1.414       .  A
C647        C648   1.392       .  A
C647       Br654   1.925       .  S
C648        C649   1.409       .  A
C648        H653   1.080       .  S
C649        C650   1.417       .  A
C650       Br651   1.922       .  S
C655        C656   1.402       .  A
C655        C660   1.404       .  A
C655        H662   1.084       .  S
C656        C657   1.408       .  A
C657        C658   1.395       .  A
C657       Br664   1.922       .  S
C658        C659   1.405       .  A
C658        H663   1.084       .  S
C659        C660   1.411       .  A
C660       Br661   1.912       .  S
O665       Zr677   2.440       .  S
O665        C667   1.288       .  A
O666       Zr703   2.425       .  S
O666        C667   1.285       .  A
C667       C1263   1.470       .  S
O668       Zr680   2.447       .  S
O668        C670   1.288       .  A
O669       Zr704   2.432       .  S
O669        C670   1.289       .  A
C670       C1280   1.496       .  S
O671       Zr680   2.432       .  S
O671        C673   1.287       .  A
O672       Zr703   2.433       .  S
O672        C673   1.286       .  A
C673       C1320   1.470       .  S
O674       Zr677   2.438       .  S
O674        C676   1.286       .  A
O675       Zr704   2.436       .  S
O675        C676   1.289       .  A
C676       C1310   1.495       .  S
Zr677       O678   2.435       .  S
Zr677       O679   2.435       .  S
Zr677       O683   2.373       .  S
Zr677       O684   2.372       .  S
Zr677       O707   2.369       .  S
Zr677       O709   2.366       .  S
O678        H721   0.990       .  S
O679        H720   0.990       .  S
O679        H724   0.990       .  S
Zr680       O681   2.432       .  S
Zr680       O682   2.433       .  S
Zr680       O684   2.363       .  S
Zr680       O683   2.372       .  S
Zr680       O708   2.370       .  S
Zr680       O710   2.373       .  S
O681        H722   0.990       .  S
O681        H725   0.990       .  S
O682        H715   0.990       .  S
O683       Zr703   2.382       .  S
O684       Zr704   2.382       .  S
O684        H711   0.965       .  S
O685       Zr697   2.442       .  S
O685        C687   1.288       .  A
O686       Zr704   2.414       .  S
O686        C687   1.284       .  A
C687       C1250   1.468       .  S
O688       Zr700   2.445       .  S
O688        C690   1.290       .  A
O689       Zr703   2.405       .  S
O689        C690   1.281       .  A
C690       C1273   1.485       .  S
O691       Zr700   2.441       .  S
O691        C693   1.286       .  A
O692       Zr704   2.440       .  S
O692        C693   1.290       .  A
C693       C1290   1.499       .  S
O694       Zr697   2.444       .  S
O694        C696   1.289       .  A
O695       Zr703   2.424       .  S
O695        C696   1.286       .  A
C696       C1300   1.475       .  S
Zr697       O698   2.436       .  S
Zr697       O699   2.434       .  S
Zr697       O705   2.370       .  S
Zr697       O706   2.371       .  S
Zr697       O709   2.369       .  S
Zr697       O707   2.371       .  S
O698        H718   0.990       .  S
O698        H723   0.990       .  S
O699        H719   0.990       .  S
Zr700       O701   2.435       .  S
Zr700       O702   2.434       .  S
Zr700       O706   2.373       .  S
Zr700       O705   2.369       .  S
Zr700       O710   2.374       .  S
Zr700       O708   2.362       .  S
O701        H717   0.990       .  S
O702        H716   0.990       .  S
O702        H726   0.990       .  S
Zr703       O706   2.388       .  S
Zr703       O708   2.386       .  S
Zr703       O709   2.382       .  S
Zr704       O705   2.390       .  S
Zr704       O707   2.386       .  S
Zr704       O710   2.380       .  S
O705        H713   0.969       .  S
O708        H712   0.963       .  S
O709        H714   0.965       .  S
O727       Zr739   2.432       .  S
O727        C729   1.284       .  A
O728        C729   1.289       .  A
C729       C1240   1.489       .  S
O730       Zr742   2.443       .  S
O730        C732   1.289       .  A
O731      Zr1430   2.414   1_455  S
O731        C732   1.283       .  A
C732       C1200   1.465       .  S
O733       Zr742   2.455       .  S
O733        C735   1.290       .  A
O734      Zr1429   2.415   1_456  S
O734        C735   1.284       .  A
C735       C1220   1.471       .  S
O736       Zr739   2.443       .  S
O736        C738   1.289       .  A
O737        C738   1.284       .  A
C738       C1213   1.492       .  S
Zr739       O740   2.436       .  S
Zr739       O741   2.436       .  S
Zr739       O745   2.375       .  S
Zr739       O746   2.369       .  S
O740        H783   0.990       .  S
O741        H782   0.990       .  S
O741        H786   0.990       .  S
Zr742       O743   2.435       .  S
Zr742       O744   2.434       .  S
Zr742      O2074   2.371   1_455  S
Zr742      O2073   2.362   1_455  S
O743        H784   0.989       .  S
O743        H787   0.990       .  S
O744        H777   0.990       .  S
O745      Zr2070   2.370       .  S
O746      Zr2070   2.373       .  S
O746        H773   0.965       .  S
O747       Zr759   2.435       .  S
O747        C749   1.287       .  A
O748       Zr766   2.426       .  S
O748        C749   1.286       .  A
C749       C1193   1.474       .  S
O750       Zr762   2.432       .  S
O750        C752   1.284       .  A
O751      Zr2093   2.455   1_455  S
O751        C752   1.292       .  A
C752       C1170   1.502       .  S
O753       Zr762   2.441       .  S
O753        C755   1.287       .  A
O754      Zr2094   2.423   1_455  S
O754        C755   1.284       .  A
C755       C1180   1.466       .  S
O756       Zr759   2.442       .  S
O756        C758   1.288       .  A
O757       Zr765   2.424       .  S
O757        C758   1.286       .  A
C758       C1233   1.473       .  S
Zr759       O760   2.434       .  S
Zr759       O761   2.433       .  S
Zr759       O767   2.362       .  S
Zr759       O768   2.374       .  S
Zr759       O771   2.367       .  S
Zr759       O769   2.375       .  S
O760        H780   0.990       .  S
O760        H785   0.990       .  S
O761        H781   0.990       .  S
Zr762       O763   2.434       .  S
Zr762       O764   2.434       .  S
Zr762      O2096   2.375   1_455  S
Zr762      O2095   2.365   1_455  S
Zr762       O772   2.366       .  S
Zr762       O770   2.368       .  S
O763        H779   0.990       .  S
O764        H778   0.990       .  S
O764        H788   0.990       .  S
Zr765      O1398   2.412       .  S
Zr765      O2079   2.459       .  S
Zr765       O768   2.384       .  S
Zr765      O2098   2.382       .  S
Zr765       O771   2.393       .  S
Zr766      O1395   2.422       .  S
Zr766      O2082   2.433       .  S
Zr766       O767   2.385       .  S
Zr766       O769   2.382       .  S
Zr766      O2100   2.387       .  S
O767      Zr2090   2.369       .  S
O767        H775   0.966       .  S
O768      Zr2090   2.375       .  S
O770      Zr2093   2.387   1_455  S
O770        H774   0.963       .  S
O771        H776   0.970       .  S
O772      Zr2094   2.381   1_455  S
C789        C790   1.542       .  S
C789        C795   1.532       .  S
C789        C793   1.544       .  S
C789       C1160   1.536       .  S
C790        H797   1.085       .  S
C790        C791   1.372       .  D
C791        C792   1.544       .  S
C791       C1243   1.485       .  S
C792        C796   1.535       .  S
C792        C794   1.534       .  S
C792        H798   1.111       .  S
C793        H799   1.083       .  S
C793        C794   1.360       .  D
C794       C1303   1.472       .  S
C795        H800   1.087       .  S
C795        C796   1.361       .  D
C796       C1150   1.476       .  S
O801       Zr813   2.426       .  S
O801        C803   1.284       .  A
O802        C803   1.289       .  A
C803       C1163   1.467       .  S
O804       Zr816   2.452   1_565  S
O804        C806   1.292       .  A
O805        C806   1.282       .  A
C806       C1140   1.494       .  S
O807       Zr816   2.461       .  S
O807        C809   1.293       .  A
O808        C809   1.283       .  A
C809       C1120   1.492       .  S
O810       Zr813   2.438   1_565  S
O810        C812   1.286       .  A
O811        C812   1.285       .  A
C812       C1113   1.472       .  S
Zr813       O814   2.433       .  S
Zr813       O815   2.436   1_545  S
Zr813       O819   2.380       .  S
Zr813       O820   2.365   1_545  S
O814        H857   0.990       .  S
O815        H856   0.990   1_565  S
O815        H860   0.990       .  S
Zr816       O817   2.434       .  S
Zr816       O818   2.436       .  S
Zr816       O820   2.381   1_545  S
Zr816       O819   2.376       .  S
O817        H858   0.990   1_545  S
O817        H861   0.991       .  S
O818        H851   0.990   1_545  S
O820        H847   0.966       .  S
O821       Zr833   2.447       .  S
O821        C823   1.290       .  A
O822       Zr840   2.437       .  S
O822        C823   1.288       .  A
C823       C1130   1.480       .  S
O824       Zr836   2.456       .  S
O824        C826   1.291       .  A
O825       Zr839   2.429       .  S
O825        C826   1.288       .  A
C826       C1090   1.495       .  S
O827       Zr836   2.457   1_565  S
O827        C829   1.292       .  A
O828       Zr840   2.413       .  S
O828        C829   1.283       .  A
C829       C1103   1.493       .  S
O830       Zr833   2.458   1_545  S
O830        C832   1.291       .  A
O831       Zr839   2.406       .  S
O831        C832   1.283       .  A
C832       C1080   1.473       .  S
Zr833       O834   2.433       .  S
Zr833       O835   2.434   1_565  S
Zr833       O841   2.373       .  S
Zr833       O842   2.369   1_565  S
Zr833       O845   2.362   1_565  S
Zr833       O843   2.370       .  S
O834        H854   0.990   1_565  S
O834        H859   0.990   1_565  S
O835        H855   0.990   1_545  S
Zr836       O837   2.435       .  S
Zr836       O838   2.435       .  S
Zr836       O842   2.372       .  S
Zr836       O841   2.373   1_545  S
Zr836       O846   2.374   1_545  S
Zr836       O844   2.375       .  S
O837        H853   0.990       .  S
O838        H852   0.990   1_545  S
O838        H862   0.990   1_545  S
Zr839       O842   2.386       .  S
Zr839       O844   2.383       .  S
Zr839       O845   2.382       .  S
Zr840       O841   2.389       .  S
Zr840       O843   2.375       .  S
Zr840       O846   2.387       .  S
O841        H849   0.965       .  S
O844        H848   0.964       .  S
O845        H850   0.968       .  S
C863        C864   1.544       .  S
C863        C869   1.537       .  S
C863        C867   1.533       .  S
C863       C1313   1.540       .  S
C864        H871   1.084       .  S
C864        C865   1.372       .  D
C865        C866   1.543       .  S
C865       C1070   1.487       .  S
C866        C870   1.534       .  S
C866        C868   1.542       .  S
C866        H872   1.110       .  S
C867        H873   1.086       .  S
C867        C868   1.367       .  D
C868       C1143   1.487       .  S
C869        H874   1.085       .  S
C869        C870   1.355       .  D
C870       C1203   1.472       .  S
O875       Zr887   2.442       .  S
O875        C877   1.288       .  A
O876      Zr2241   2.430       .  S
O876        C877   1.286       .  A
C877       C1063   1.474       .  S
O878       Zr890   2.433   1_565  S
O878        C880   1.285       .  A
O879       Zr914   2.413       .  S
O879        C880   1.283       .  A
C880       C1033   1.458       .  S
O881       Zr890   2.435       .  S
O881        C883   1.286       .  A
O882      Zr2241   2.437       .  S
O882        C883   1.287       .  A
C883       C1153   1.470       .  S
O884       Zr887   2.445   1_565  S
O884        C886   1.290       .  A
O885       Zr914   2.415       .  S
O885        C886   1.283       .  A
C886       C1050   1.481       .  S
Zr887       O888   2.435       .  S
Zr887       O889   2.433       .  S
Zr887       O893   2.372       .  S
Zr887       O894   2.368   1_545  S
Zr887       O917   2.368   1_545  S
Zr887      O2247   2.372       .  S
O888        H931   0.990       .  S
O889        H930   0.989       .  S
O889        H934   0.990       .  S
Zr890       O891   2.438       .  S
Zr890       O892   2.436       .  S
Zr890       O894   2.369   1_545  S
Zr890       O893   2.370       .  S
Zr890      O2246   2.372       .  S
Zr890       O920   2.377   1_545  S
O891        H932   0.990       .  S
O891        H935   0.990       .  S
O892        H925   0.990       .  S
O893      Zr2241   2.379       .  S
O894       Zr914   2.381       .  S
O894        H921   0.964       .  S
O895       Zr907   2.457   1_565  S
O895        C897   1.291       .  A
O896      Zr2242   2.423       .  S
O896        C897   1.285       .  A
C897       C1043   1.476       .  S
O898       Zr910   2.453       .  S
O898        C900   1.291       .  A
O899       Zr913   2.417       .  S
O899        C900   1.284       .  A
C900       C1010   1.491       .  S
O901       Zr910   2.457   1_565  S
O901        C903   1.291       .  A
O902      Zr2242   2.420       .  S
O902        C903   1.285       .  A
C903       C1073   1.474       .  S
O904       Zr907   2.452       .  S
O904        C906   1.289       .  A
O905       Zr913   2.419       .  S
O905        C906   1.287       .  A
C906       C1023   1.494       .  S
Zr907       O908   2.437       .  S
Zr907       O909   2.434       .  S
Zr907       O915   2.372   1_545  S
Zr907       O916   2.375       .  S
Zr907       O919   2.375       .  S
Zr907      O2245   2.370   1_545  S
O908        H928   0.990   1_545  S
O908        H933   0.990       .  S
O909        H929   0.990   1_545  S
Zr910       O911   2.435       .  S
Zr910       O912   2.436       .  S
Zr910       O916   2.372       .  S
Zr910       O915   2.375   1_545  S
Zr910      O2248   2.375   1_545  S
Zr910       O918   2.373       .  S
O911        H927   0.990       .  S
O912        H926   0.990   1_545  S
O912        H936   0.990       .  S
Zr913      O2204   2.431   1_455  S
Zr913      O2210   2.448   1_455  S
Zr913      O2221   2.376   1_455  S
Zr913       O916   2.386       .  S
Zr913       O918   2.383       .  S
Zr913       O919   2.388       .  S
Zr914      O2224   2.422       .  S
Zr914      O2230   2.412       .  S
Zr914      O2243   2.383       .  S
Zr914       O917   2.377       .  S
Zr914       O920   2.383       .  S
O915      Zr2242   2.389       .  S
O915        H923   0.964       .  S
O917      Zr2235   2.371   1_565  S
O918      Zr2218   2.368   1_455  S
O918        H922   0.964       .  S
O919      Zr2215   2.367   1_455  S
O919        H924   0.963       .  S
O920      Zr2238   2.372   1_565  S
C937        C938   1.548       .  S
C937        C943   1.533       .  S
C937        C941   1.530       .  S
C937       C1053   1.532       .  S
C938        H945   1.082       .  S
C938        C939   1.372       .  D
C939        C940   1.541       .  S
C939       C1293   1.484       .  S
C940        C944   1.538       .  S
C940        C942   1.536       .  S
C940        H946   1.111       .  S
C941        H947   1.087       .  S
C941        C942   1.359       .  D
C942       C1190   1.471       .  S
C943        H948   1.086       .  S
C943        C944   1.362       .  D
C944       C1133   1.481       .  S
C949        C950   1.543       .  S
C949        C955   1.547       .  S
C949        C953   1.534       .  S
C949       C1173   1.546       .  S
C950        H957   1.084       .  S
C950        C951   1.374       .  D
C951        C952   1.544       .  S
C951       C1093   1.499       .  S
C952        C956   1.533       .  S
C952        C954   1.544       .  S
C952        H958   1.109       .  S
C953        H959   1.086       .  S
C953        C954   1.362       .  D
C954       C1020   1.479       .  S
C955        H960   1.080       .  S
C955        C956   1.362       .  D
C956       C1323   1.486       .  S
C961        C962   1.536       .  S
C961        C967   1.530       .  S
C961        C965   1.546       .  S
C961       C1083   1.539       .  S
C962        H969   1.086       .  S
C962        C963   1.373       .  D
C963        C964   1.539       .  S
C963       C1270   1.488       .  S
C964        C968   1.535       .  S
C964        C966   1.536       .  S
C964        H970   1.108       .  S
C965        H971   1.080       .  S
C965        C966   1.362       .  D
C966       C1230   1.476       .  S
C967        H972   1.087       .  S
C967        C968   1.362       .  D
C968       C1060   1.475       .  S
C973        C974   1.542       .  S
C973        C979   1.543       .  S
C973        C977   1.534       .  S
C973       C1283   1.544       .  S
C974        H981   1.084       .  S
C974        C975   1.375       .  D
C975        C976   1.544       .  S
C975       C1100   1.499       .  S
C976        C980   1.534       .  S
C976        C978   1.542       .  S
C976        H982   1.108       .  S
C977        H983   1.086       .  S
C977        C978   1.366       .  D
C978       C1040   1.482       .  S
C979        H984   1.084       .  S
C979        C980   1.360       .  D
C980       C1183   1.477       .  S
C985        C986   1.548       .  S
C985        C991   1.532       .  S
C985        C989   1.537       .  S
C985       C1223   1.541       .  S
C986        H993   1.078       .  S
C986        C987   1.378       .  D
C987        C988   1.545       .  S
C987       C1013   1.508       .  S
C988        C992   1.531       .  S
C988        C990   1.540       .  S
C988        H994   1.103       .  S
C989        H995   1.086       .  S
C989        C990   1.364       .  D
C990       C1123   1.475       .  S
C991        H996   1.087       .  S
C991        C992   1.358       .  D
C992       C1260   1.475       .  S
C997        C998   1.537       .  S
C997       C1003   1.524       .  S
C997       C1001   1.537       .  S
C997       C1030   1.526       .  S
C998       H1005   1.085       .  S
C998        C999   1.370       .  D
C999       C1000   1.544       .  S
C999       C1210   1.493       .  S
C1000      C1004   1.542       .  S
C1000      C1002   1.545       .  S
C1000      H1006   1.109       .  S
C1001      H1007   1.086       .  S
C1001      C1002   1.365       .  D
C1002      C1253   1.476       .  S
C1003      H1008   1.087       .  S
C1003      C1004   1.359       .  D
C1004      C1110   1.478       .  S
C1009      C1010   1.405       .  A
C1009      C1014   1.402       .  A
C1009      H1016   1.084       .  S
C1010      C1011   1.414       .  A
C1011      C1012   1.397       .  A
C1011     Br1018   1.924       .  S
C1012      C1013   1.409       .  A
C1012      H1017   1.082       .  S
C1013      C1014   1.421       .  A
C1014     Br1015   1.919       .  S
C1019      C1020   1.399       .  A
C1019      C1024   1.399       .  A
C1019      H1026   1.080       .  S
C1020      C1021   1.405       .  A
C1021      C1022   1.398       .  A
C1021     Br1028   1.920       .  S
C1022      C1023   1.412       .  A
C1022      H1027   1.083       .  S
C1023      C1024   1.420       .  A
C1024     Br1025   1.923       .  S
C1029      C1030   1.412       .  A
C1029      C1034   1.395       .  A
C1029      H1036   1.081       .  S
C1030      C1031   1.423       .  A
C1031      C1032   1.397       .  A
C1031     Br1038   1.924       .  S
C1032      C1033   1.395       .  A
C1032      H1037   1.084       .  S
C1033      C1034   1.401       .  A
C1034     Br1035   1.921       .  S
C1039      C1040   1.404       .  A
C1039      C1044   1.405       .  A
C1039      H1046   1.084       .  S
C1040      C1041   1.410       .  A
C1041      C1042   1.395       .  A
C1041     Br1048   1.918       .  S
C1042      C1043   1.399       .  A
C1042      H1047   1.084       .  S
C1043      C1044   1.412       .  A
C1044     Br1045   1.918       .  S
C1049      C1050   1.400       .  A
C1049      C1054   1.396       .  A
C1049      H1056   1.084       .  S
C1050      C1051   1.412       .  A
C1051      C1052   1.400       .  A
C1051     Br1058   1.920       .  S
C1052      C1053   1.409       .  A
C1052      H1057   1.078       .  S
C1053      C1054   1.422       .  A
C1054     Br1055   1.926       .  S
C1059      C1060   1.399       .  A
C1059      C1064   1.392       .  A
C1059      H1066   1.084       .  S
C1060      C1061   1.410       .  A
C1061      C1062   1.405       .  A
C1061     Br1068   1.919       .  S
C1062      C1063   1.406       .  A
C1062      H1067   1.083       .  S
C1063      C1064   1.407       .  A
C1064     Br1065   1.917       .  S
C1069      C1070   1.404       .  A
C1069      C1074   1.397       .  A
C1069      H1076   1.084       .  S
C1070      C1071   1.413       .  A
C1071      C1072   1.404       .  A
C1071     Br1078   1.915       .  S
C1072      C1073   1.403       .  A
C1072      H1077   1.084       .  S
C1073      C1074   1.406       .  A
C1074     Br1075   1.919       .  S
C1079      C1080   1.399       .  A
C1079      C1084   1.401       .  A
C1079      H1086   1.084       .  S
C1080      C1081   1.404       .  A
C1081      C1082   1.394       .  A
C1081     Br1088   1.917       .  S
C1082      C1083   1.412       .  A
C1082      H1087   1.073       .  S
C1083      C1084   1.424       .  A
C1084     Br1085   1.923       .  S
C1089      C1090   1.410       .  A
C1089      C1094   1.403       .  A
C1089      H1096   1.083       .  S
C1090      C1091   1.414       .  A
C1091      C1092   1.397       .  A
C1091     Br1098   1.921       .  S
C1092      C1093   1.405       .  A
C1092      H1097   1.078       .  S
C1093      C1094   1.415       .  A
C1094     Br1095   1.921       .  S
C1099      C1100   1.406       .  A
C1099      C1104   1.399       .  A
C1099      H1106   1.083       .  S
C1100      C1101   1.417       .  A
C1101      C1102   1.399       .  A
C1101     Br1108   1.914       .  S
C1102      C1103   1.404       .  A
C1102      H1107   1.083       .  S
C1103      C1104   1.418       .  A
C1104     Br1105   1.923       .  S
C1109      C1110   1.404       .  A
C1109      C1114   1.405       .  A
C1109      H1116   1.084       .  S
C1110      C1111   1.409       .  A
C1111      C1112   1.397       .  A
C1111     Br1118   1.919       .  S
C1112      C1113   1.401       .  A
C1112      H1117   1.084       .  S
C1113      C1114   1.409       .  A
C1114     Br1115   1.918       .  S
C1119      C1120   1.407       .  A
C1119      C1124   1.397       .  A
C1119      H1126   1.083       .  S
C1120      C1121   1.422       .  A
C1121      C1122   1.403       .  A
C1121     Br1128   1.922       .  S
C1122      C1123   1.399       .  A
C1122      H1127   1.084       .  S
C1123      C1124   1.405       .  A
C1124     Br1125   1.921       .  S
C1129      C1130   1.408       .  A
C1129      C1134   1.407       .  A
C1129      H1136   1.083       .  S
C1130      C1131   1.409       .  A
C1131      C1132   1.394       .  A
C1131     Br1138   1.919       .  S
C1132      C1133   1.401       .  A
C1132      H1137   1.084       .  S
C1133      C1134   1.408       .  A
C1134     Br1135   1.917       .  S
C1139      C1140   1.406       .  A
C1139      C1144   1.395       .  A
C1139      H1146   1.083       .  S
C1140      C1141   1.422       .  A
C1141      C1142   1.400       .  A
C1141     Br1148   1.923       .  S
C1142      C1143   1.403       .  A
C1142      H1147   1.084       .  S
C1143      C1144   1.408       .  A
C1144     Br1145   1.910       .  S
C1149      C1150   1.402       .  A
C1149      C1154   1.398       .  A
C1149      H1156   1.084       .  S
C1150      C1151   1.408       .  A
C1151      C1152   1.402       .  A
C1151     Br1158   1.917       .  S
C1152      C1153   1.403       .  A
C1152      H1157   1.084       .  S
C1153      C1154   1.407       .  A
C1154     Br1155   1.919       .  S
C1159      C1160   1.417       .  A
C1159      C1164   1.396       .  A
C1159      H1166   1.076       .  S
C1160      C1161   1.422       .  A
C1161      C1162   1.399       .  A
C1161     Br1168   1.919       .  S
C1162      C1163   1.398       .  A
C1162      H1167   1.084       .  S
C1163      C1164   1.398       .  A
C1164     Br1165   1.918       .  S
C1169      C1170   1.409       .  A
C1169      C1174   1.408       .  A
C1169      H1176   1.083       .  S
C1170      C1171   1.420       .  A
C1171      C1172   1.394       .  A
C1171     Br1178   1.928       .  S
C1172      C1173   1.408       .  A
C1172      H1177   1.073       .  S
C1173      C1174   1.421       .  A
C1174     Br1175   1.924       .  S
C1179      C1180   1.401       .  A
C1179      C1184   1.401       .  A
C1179      H1186   1.084       .  S
C1180      C1181   1.405       .  A
C1181      C1182   1.398       .  A
C1181     Br1188   1.920       .  S
C1182      C1183   1.402       .  A
C1182      H1187   1.084       .  S
C1183      C1184   1.410       .  A
C1184     Br1185   1.916       .  S
C1189      C1190   1.400       .  A
C1189      C1194   1.401       .  A
C1189      H1196   1.084       .  S
C1190      C1191   1.407       .  A
C1191      C1192   1.395       .  A
C1191     Br1198   1.921       .  S
C1192      C1193   1.403       .  A
C1192      H1197   1.084       .  S
C1193      C1194   1.412       .  A
C1194     Br1195   1.917       .  S
C1199      C1200   1.404       .  A
C1199      C1204   1.401       .  A
C1199      H1206   1.084       .  S
C1200      C1201   1.404       .  A
C1201      C1202   1.391       .  A
C1201     Br1208   1.919       .  S
C1202      C1203   1.403       .  A
C1202      H1207   1.084       .  S
C1203      C1204   1.407       .  A
C1204     Br1205   1.917       .  S
C1209      C1210   1.404       .  A
C1209      C1214   1.394       .  A
C1209      H1216   1.083       .  S
C1210      C1211   1.412       .  A
C1211      C1212   1.402       .  A
C1211     Br1218   1.916       .  S
C1212      C1213   1.410       .  A
C1212      H1217   1.083       .  S
C1213      C1214   1.417       .  A
C1214     Br1215   1.925       .  S
C1219      C1220   1.395       .  A
C1219      C1224   1.397       .  A
C1219      H1226   1.084       .  S
C1220      C1221   1.404       .  A
C1221      C1222   1.402       .  A
C1221     Br1228   1.920       .  S
C1222      C1223   1.416       .  A
C1222      H1227   1.075       .  S
C1223      C1224   1.424       .  A
C1224     Br1225   1.924       .  S
C1229      C1230   1.402       .  A
C1229      C1234   1.403       .  A
C1229      H1236   1.084       .  S
C1230      C1231   1.410       .  A
C1231      C1232   1.394       .  A
C1231     Br1238   1.924       .  S
C1232      C1233   1.401       .  A
C1232      H1237   1.084       .  S
C1233      C1234   1.411       .  A
C1234     Br1235   1.917       .  S
C1239      C1240   1.408       .  A
C1239      C1244   1.396       .  A
C1239      H1246   1.083       .  S
C1240      C1241   1.419       .  A
C1241      C1242   1.396       .  A
C1241     Br1248   1.923       .  S
C1242      C1243   1.401       .  A
C1242      H1247   1.082       .  S
C1243      C1244   1.409       .  A
C1244     Br1245   1.915       .  S
C1249      C1250   1.399       .  A
C1249      C1254   1.394       .  A
C1249      H1256   1.084       .  S
C1250      C1251   1.409       .  A
C1251      C1252   1.401       .  A
C1251     Br1258   1.917       .  S
C1252      C1253   1.401       .  A
C1252      H1257   1.083       .  S
C1253      C1254   1.414       .  A
C1254     Br1255   1.922       .  S
C1259      C1260   1.402       .  A
C1259      C1264   1.397       .  A
C1259      H1266   1.084       .  S
C1260      C1261   1.407       .  A
C1261      C1262   1.399       .  A
C1261     Br1268   1.916       .  S
C1262      C1263   1.402       .  A
C1262      H1267   1.084       .  S
C1263      C1264   1.408       .  A
C1264     Br1265   1.919       .  S
C1269      C1270   1.403       .  A
C1269      C1274   1.396       .  A
C1269      H1276   1.084       .  S
C1270      C1271   1.414       .  A
C1271      C1272   1.395       .  A
C1271     Br1278   1.915       .  S
C1272      C1273   1.404       .  A
C1272      H1277   1.084       .  S
C1273      C1274   1.417       .  A
C1274     Br1275   1.924       .  S
C1279      C1280   1.406       .  A
C1279      C1284   1.404       .  A
C1279      H1286   1.083       .  S
C1280      C1281   1.414       .  A
C1281      C1282   1.398       .  A
C1281     Br1288   1.922       .  S
C1282      C1283   1.411       .  A
C1282      H1287   1.079       .  S
C1283      C1284   1.421       .  A
C1284     Br1285   1.921       .  S
C1289      C1290   1.411       .  A
C1289      C1294   1.402       .  A
C1289      H1296   1.083       .  S
C1290      C1291   1.423       .  A
C1291      C1292   1.399       .  A
C1291     Br1298   1.923       .  S
C1292      C1293   1.398       .  A
C1292      H1297   1.083       .  S
C1293      C1294   1.408       .  A
C1294     Br1295   1.920       .  S
C1299      C1300   1.403       .  A
C1299      C1304   1.395       .  A
C1299      H1306   1.084       .  S
C1300      C1301   1.412       .  A
C1301      C1302   1.401       .  A
C1301     Br1308   1.917       .  S
C1302      C1303   1.400       .  A
C1302      H1307   1.084       .  S
C1303      C1304   1.408       .  A
C1304     Br1305   1.920       .  S
C1309      C1310   1.410       .  A
C1309      C1314   1.406       .  A
C1309      H1316   1.083       .  S
C1310      C1311   1.415       .  A
C1311      C1312   1.391       .  A
C1311     Br1318   1.925       .  S
C1312      C1313   1.410       .  A
C1312      H1317   1.079       .  S
C1313      C1314   1.417       .  A
C1314     Br1315   1.921       .  S
C1319      C1320   1.403       .  A
C1319      C1324   1.405       .  A
C1319      H1326   1.084       .  S
C1320      C1321   1.407       .  A
C1321      C1322   1.393       .  A
C1321     Br1328   1.922       .  S
C1322      C1323   1.403       .  A
C1322      H1327   1.084       .  S
C1323      C1324   1.412       .  A
C1324     Br1325   1.912       .  S
O1329     Zr1341   2.432       .  S
O1329      C1331   1.286       .  A
O1330     Zr1367   2.434       .  S
O1330      C1331   1.287       .  A
C1331      C1927   1.472       .  S
O1332     Zr1344   2.455       .  S
O1332      C1334   1.290       .  A
O1333     Zr1368   2.435       .  S
O1333      C1334   1.289       .  A
C1334      C1944   1.499       .  S
O1335     Zr1344   2.436       .  S
O1335      C1337   1.288       .  A
O1336     Zr1367   2.439       .  S
O1336      C1337   1.288       .  A
C1337      C1984   1.473       .  S
O1338     Zr1341   2.435       .  S
O1338      C1340   1.286       .  A
O1339     Zr1368   2.429       .  S
O1339      C1340   1.288       .  A
C1340      C1974   1.491       .  S
Zr1341     O1342   2.435       .  S
Zr1341     O1343   2.433       .  S
Zr1341     O1347   2.375       .  S
Zr1341     O1348   2.372       .  S
Zr1341     O1371   2.366       .  S
Zr1341     O1373   2.365       .  S
O1342      H1385   0.990       .  S
O1343      H1384   0.989       .  S
O1343      H1388   0.990       .  S
Zr1344     O1345   2.434       .  S
Zr1344     O1346   2.434       .  S
Zr1344     O1348   2.365       .  S
Zr1344     O1347   2.377       .  S
Zr1344     O1372   2.371       .  S
Zr1344     O1374   2.374       .  S
O1345      H1386   0.990       .  S
O1345      H1389   0.990       .  S
O1346      H1379   0.990       .  S
O1347     Zr1367   2.380       .  S
O1348     Zr1368   2.382       .  S
O1348      H1375   0.964       .  S
O1349     Zr1361   2.446       .  S
O1349      C1351   1.289       .  A
O1350     Zr1368   2.420       .  S
O1350      C1351   1.286       .  A
C1351      C1914   1.471       .  S
O1352     Zr1364   2.451       .  S
O1352      C1354   1.292       .  A
O1353     Zr1367   2.399       .  S
O1353      C1354   1.280       .  A
C1354      C1937   1.486       .  S
O1355     Zr1364   2.456       .  S
O1355      C1357   1.289       .  A
O1356     Zr1368   2.426       .  S
O1356      C1357   1.288       .  A
C1357      C1954   1.499       .  S
O1358     Zr1361   2.447       .  S
O1358      C1360   1.289       .  A
O1359     Zr1367   2.432       .  S
O1359      C1360   1.288       .  A
C1360      C1964   1.478       .  S
Zr1361     O1362   2.436       .  S
Zr1361     O1363   2.434       .  S
Zr1361     O1369   2.371       .  S
Zr1361     O1370   2.367       .  S
Zr1361     O1373   2.368       .  S
Zr1361     O1371   2.374       .  S
O1362      H1382   0.990       .  S
O1362      H1387   0.990       .  S
O1363      H1383   0.990       .  S
Zr1364     O1365   2.436       .  S
Zr1364     O1366   2.434       .  S
Zr1364     O1370   2.373       .  S
Zr1364     O1369   2.368       .  S
Zr1364     O1374   2.375       .  S
Zr1364     O1372   2.366       .  S
O1365      H1381   0.990       .  S
O1366      H1380   0.990       .  S
O1366      H1390   0.990       .  S
Zr1367     O1370   2.389       .  S
Zr1367     O1372   2.389       .  S
Zr1367     O1373   2.377       .  S
Zr1368     O1369   2.392       .  S
Zr1368     O1371   2.382       .  S
Zr1368     O1374   2.382       .  S
O1369      H1377   0.969       .  S
O1372      H1376   0.963       .  S
O1373      H1378   0.965       .  S
O1391     Zr1403   2.431       .  S
O1391      C1393   1.284       .  A
O1392     Zr2093   2.444       .  S
O1392      C1393   1.291       .  A
C1393      C1904   1.497       .  S
O1394     Zr1406   2.450       .  S
O1394      C1396   1.291       .  A
O1395      C1396   1.285       .  A
C1396      C1864   1.470       .  S
O1397     Zr1406   2.453       .  S
O1397      C1399   1.290       .  A
O1398      C1399   1.284       .  A
C1399      C1884   1.470       .  S
O1400     Zr1403   2.447       .  S
O1400      C1402   1.290       .  A
O1401     Zr2094   2.422       .  S
O1401      C1402   1.284       .  A
C1402      C1877   1.495       .  S
Zr1403     O1404   2.434       .  S
Zr1403     O1405   2.434       .  S
Zr1403     O1409   2.375       .  S
Zr1403     O1410   2.368       .  S
Zr1403     O2097   2.367       .  S
Zr1403     O2099   2.373       .  S
O1404      H1447   0.990       .  S
O1405      H1446   0.990       .  S
O1405      H1450   0.990       .  S
Zr1406     O1407   2.435       .  S
Zr1406     O1408   2.435       .  S
Zr1406     O2098   2.366       .  S
Zr1406     O2100   2.377       .  S
O1407      H1448   0.990       .  S
O1407      H1451   0.990       .  S
O1408      H1441   0.990       .  S
O1409     Zr2093   2.386       .  S
O1410     Zr2094   2.383       .  S
O1410      H1437   0.965       .  S
O1411     Zr1423   2.433       .  S
O1411      C1413   1.287       .  A
O1412     Zr1430   2.428   1_554  S
O1412      C1413   1.287       .  A
C1413      C1857   1.479       .  S
O1414     Zr1426   2.436       .  S
O1414      C1416   1.285       .  A
O1415      C1416   1.290       .  A
C1416      C1834   1.500       .  S
O1417     Zr1426   2.445       .  S
O1417      C1419   1.288       .  A
O1418      C1419   1.284       .  A
C1419      C1844   1.468       .  S
O1420     Zr1423   2.436       .  S
O1420      C1422   1.287       .  A
O1421     Zr1429   2.425       .  S
O1421      C1422   1.286       .  A
C1422      C1897   1.471       .  S
Zr1423     O1424   2.436       .  S
Zr1423     O1425   2.434       .  S
Zr1423     O1431   2.365       .  S
Zr1423     O1432   2.371       .  S
Zr1423     O1435   2.370       .  S
Zr1423     O1433   2.375       .  S
O1424      H1444   0.990       .  S
O1424      H1449   0.990       .  S
O1425      H1445   0.990       .  S
Zr1426     O1427   2.432       .  S
Zr1426     O1428   2.436       .  S
Zr1426     O1436   2.365   1_554  S
Zr1426     O1434   2.364   1_554  S
O1427      H1443   0.990       .  S
O1428      H1442   0.990       .  S
O1428      H1452   0.990       .  S
Zr1429     O2056   2.417   1_554  S
Zr1429     O2073   2.383   1_554  S
Zr1429     O1432   2.378       .  S
Zr1429     O1435   2.387       .  S
Zr1430     O2065   2.422       .  S
Zr1430     O2074   2.387       .  S
Zr1430     O1431   2.379   1_556  S
Zr1430     O1433   2.382   1_556  S
O1431      H1439   0.966       .  S
O1433     Zr2067   2.373   1_554  S
O1434     Zr2070   2.369       .  S
O1434      H1438   0.963       .  S
O1435     Zr2067   2.376   1_554  S
O1435      H1440   0.969       .  S
O1436     Zr2070   2.375       .  S
C1453      C1454   1.541       .  S
C1453      C1459   1.530       .  S
C1453      C1457   1.543       .  S
C1453      C1824   1.535       .  S
C1454      H1461   1.086       .  S
C1454      C1455   1.369       .  D
C1455      C1456   1.544       .  S
C1455      C1907   1.482       .  S
C1456      C1460   1.538       .  S
C1456      C1458   1.537       .  S
C1456      H1462   1.111       .  S
C1457      H1463   1.084       .  S
C1457      C1458   1.360       .  D
C1458      C1967   1.475       .  S
C1459      H1464   1.087       .  S
C1459      C1460   1.364       .  D
C1460      C1814   1.480       .  S
O1465     Zr1477   2.427   1_545  S
O1465      C1467   1.284       .  A
O1466     Zr2167   2.443       .  S
O1466      C1467   1.289       .  A
C1467      C1827   1.468       .  S
O1468     Zr1480   2.441   1_565  S
O1468      C1470   1.289       .  A
O1469     Zr2168   2.423       .  S
O1469      C1470   1.285       .  A
C1470      C1804   1.495       .  S
O1471     Zr1480   2.461       .  S
O1471      C1473   1.293       .  A
O1472     Zr2167   2.416       .  S
O1472      C1473   1.284       .  A
C1473      C1784   1.491       .  S
O1474     Zr1477   2.432       .  S
O1474      C1476   1.286       .  A
O1475     Zr2168   2.433       .  S
O1475      C1476   1.287       .  A
C1476      C1777   1.473       .  S
Zr1477     O1478   2.437       .  S
Zr1477     O1479   2.436       .  S
Zr1477     O1483   2.376   1_565  S
Zr1477     O1484   2.369       .  S
Zr1477     O2171   2.363       .  S
Zr1477     O2173   2.374   1_565  S
O1478      H1521   0.990       .  S
O1479      H1520   0.990   1_565  S
O1479      H1524   0.990       .  S
Zr1480     O1481   2.433   1_545  S
Zr1480     O1482   2.435       .  S
Zr1480     O1484   2.379   1_545  S
Zr1480     O1483   2.373       .  S
Zr1480     O2172   2.368       .  S
Zr1480     O2174   2.377   1_545  S
O1481      H1522   0.990   1_565  S
O1481      H1525   0.991   1_565  S
O1482      H1515   0.990       .  S
O1483     Zr2167   2.383       .  S
O1484     Zr2168   2.385       .  S
O1484      H1511   0.966       .  S
O1485     Zr1497   2.444   1_565  S
O1485      C1487   1.290       .  A
O1486     Zr1504   2.424   1_554  S
O1486      C1487   1.285       .  A
C1487      C1794   1.474       .  S
O1488     Zr1500   2.440       .  S
O1488      C1490   1.287       .  A
O1489     Zr1503   2.434   1_554  S
O1489      C1490   1.289       .  A
C1490      C1754   1.492       .  S
O1491     Zr1500   2.457   1_565  S
O1491      C1493   1.292       .  A
O1492     Zr1504   2.410   1_554  S
O1492      C1493   1.282       .  A
C1493      C1767   1.493       .  S
O1494     Zr1497   2.457       .  S
O1494      C1496   1.290       .  A
O1495     Zr1503   2.420   1_554  S
O1495      C1496   1.285       .  A
C1496      C1744   1.479       .  S
Zr1497     O1498   2.436       .  S
Zr1497     O1499   2.433       .  S
Zr1497     O1505   2.372   1_545  S
Zr1497     O1506   2.368       .  S
Zr1497     O1509   2.364   1_554  S
Zr1497     O1507   2.376   1_544  S
O1498      H1518   0.990       .  S
O1498      H1523   0.990       .  S
O1499      H1519   0.990   1_545  S
Zr1500     O1501   2.434       .  S
Zr1500     O1502   2.435       .  S
Zr1500     O1506   2.376       .  S
Zr1500     O1505   2.364   1_545  S
Zr1500     O1510   2.374   1_545  S
Zr1500     O1508   2.373       .  S
O1501      H1517   0.990   1_545  S
O1502      H1516   0.990   1_545  S
O1502      H1526   0.990       .  S
Zr1503     O2130   2.444       .  S
Zr1503     O2136   2.412       .  S
Zr1503     O2147   2.382       .  S
Zr1503     O1506   2.381   1_556  S
Zr1503     O1508   2.385   1_556  S
Zr1503     O1509   2.382       .  S
Zr1504     O2133   2.421       .  S
Zr1504     O2139   2.425       .  S
Zr1504     O2148   2.386       .  S
Zr1504     O1505   2.386   1_556  S
Zr1504     O1507   2.381       .  S
Zr1504     O1510   2.385   1_556  S
O1505      H1513   0.965       .  S
O1507     Zr2141   2.367   1_565  S
O1508     Zr2144   2.368   1_554  S
O1508      H1512   0.965       .  S
O1509     Zr2141   2.378       .  S
O1509      H1514   0.968       .  S
O1510     Zr2144   2.379   1_564  S
C1527      C1528   1.544       .  S
C1527      C1533   1.538       .  S
C1527      C1531   1.532       .  S
C1527      C1977   1.540       .  S
C1528      H1535   1.085       .  S
C1528      C1529   1.372       .  D
C1529      C1530   1.543       .  S
C1529      C1734   1.483       .  S
C1530      C1534   1.536       .  S
C1530      C1532   1.544       .  S
C1530      H1536   1.110       .  S
C1531      H1537   1.087       .  S
C1531      C1532   1.368       .  D
C1532      C1807   1.490       .  S
C1533      H1538   1.084       .  S
C1533      C1534   1.358       .  D
C1534      C1867   1.477       .  S
O1539     Zr1551   2.433       .  S
O1539      C1541   1.287       .  A
O1540      C1541   1.287       .  A
C1541      C1727   1.473       .  S
O1542     Zr1554   2.435   1_565  S
O1542      C1544   1.286       .  A
O1543     Zr1578   2.417   1_655  S
O1543      C1544   1.284       .  A
C1544      C1697   1.460       .  S
O1545     Zr1554   2.437       .  S
O1545      C1547   1.287       .  A
O1546      C1547   1.285       .  A
C1547      C1817   1.469       .  S
O1548     Zr1551   2.438   1_565  S
O1548      C1550   1.288       .  A
O1549     Zr1578   2.429   1_655  S
O1549      C1550   1.286       .  A
C1550      C1714   1.485       .  S
Zr1551     O1552   2.436       .  S
Zr1551     O1553   2.435       .  S
Zr1551     O1557   2.373       .  S
Zr1551     O1558   2.363   1_545  S
Zr1551     O1581   2.367   1_645  S
O1552      H1595   0.990   1_545  S
O1553      H1594   0.989       .  S
O1553      H1598   0.990       .  S
Zr1554     O1555   2.436       .  S
Zr1554     O1556   2.436       .  S
Zr1554     O1558   2.372   1_545  S
Zr1554     O1557   2.368       .  S
Zr1554     O1584   2.376   1_645  S
O1555      H1596   0.990       .  S
O1555      H1599   0.990       .  S
O1556      H1589   0.990       .  S
O1558     Zr1578   2.376   1_655  S
O1558      H1585   0.963       .  S
O1559     Zr1571   2.458   1_565  S
O1559      C1561   1.291       .  A
O1560      C1561   1.283       .  A
C1561      C1707   1.471       .  S
O1562     Zr1574   2.451       .  S
O1562      C1564   1.291       .  A
O1563     Zr1577   2.418       .  S
O1563      C1564   1.283       .  A
C1564      C1674   1.495       .  S
O1565     Zr1574   2.447   1_565  S
O1565      C1567   1.289       .  A
O1566      C1567   1.285       .  A
C1567      C1737   1.471       .  S
O1568     Zr1571   2.455       .  S
O1568      C1570   1.289       .  A
O1569     Zr1577   2.407       .  S
O1569      C1570   1.284       .  A
C1570      C1687   1.493       .  S
Zr1571     O1572   2.435       .  S
Zr1571     O1573   2.435       .  S
Zr1571     O1579   2.371   1_545  S
Zr1571     O1580   2.372       .  S
Zr1571     O1583   2.371       .  S
O1572      H1592   0.990   1_545  S
O1572      H1597   0.990       .  S
O1573      H1593   0.990   1_545  S
Zr1574     O1575   2.432       .  S
Zr1574     O1576   2.436       .  S
Zr1574     O1580   2.373       .  S
Zr1574     O1579   2.375   1_545  S
Zr1574     O1582   2.374       .  S
O1575      H1591   0.990       .  S
O1576      H1590   0.990       .  S
O1576      H1600   0.990       .  S
Zr1577     O1580   2.381       .  S
Zr1577     O1582   2.382       .  S
Zr1577     O1583   2.387       .  S
Zr1578     O1581   2.380       .  S
Zr1578     O1584   2.384       .  S
O1579      H1587   0.964       .  S
O1582      H1586   0.964       .  S
O1583      H1588   0.963       .  S
C1601      C1602   1.549       .  S
C1601      C1607   1.533       .  S
C1601      C1605   1.529       .  S
C1601      C1717   1.533       .  S
C1602      H1609   1.081       .  S
C1602      C1603   1.373       .  D
C1603      C1604   1.549       .  S
C1603      C1957   1.496       .  S
C1604      C1608   1.542       .  S
C1604      C1606   1.541       .  S
C1604      H1610   1.110       .  S
C1605      H1611   1.087       .  S
C1605      C1606   1.358       .  D
C1606      C1854   1.476       .  S
C1607      H1612   1.086       .  S
C1607      C1608   1.362       .  D
C1608      C1797   1.482       .  S
C1613      C1614   1.542       .  S
C1613      C1619   1.547       .  S
C1613      C1617   1.533       .  S
C1613      C1837   1.546       .  S
C1614      H1621   1.084       .  S
C1614      C1615   1.374       .  D
C1615      C1616   1.546       .  S
C1615      C1757   1.498       .  S
C1616      C1620   1.531       .  S
C1616      C1618   1.545       .  S
C1616      H1622   1.109       .  S
C1617      H1623   1.086       .  S
C1617      C1618   1.362       .  D
C1618      C1684   1.481       .  S
C1619      H1624   1.078       .  S
C1619      C1620   1.360       .  D
C1620      C1987   1.484       .  S
C1625      C1626   1.535       .  S
C1625      C1631   1.529       .  S
C1625      C1629   1.545       .  S
C1625      C1747   1.538       .  S
C1626      H1633   1.086       .  S
C1626      C1627   1.372       .  D
C1627      C1628   1.539       .  S
C1627      C1934   1.487       .  S
C1628      C1632   1.537       .  S
C1628      C1630   1.538       .  S
C1628      H1634   1.108       .  S
C1629      H1635   1.080       .  S
C1629      C1630   1.365       .  D
C1630      C1894   1.475       .  S
C1631      H1636   1.087       .  S
C1631      C1632   1.362       .  D
C1632      C1724   1.479       .  S
C1637      C1638   1.541       .  S
C1637      C1643   1.544       .  S
C1637      C1641   1.535       .  S
C1637      C1947   1.546       .  S
C1638      H1645   1.084       .  S
C1638      C1639   1.372       .  D
C1639      C1640   1.546       .  S
C1639      C1764   1.497       .  S
C1640      C1644   1.537       .  S
C1640      C1642   1.545       .  S
C1640      H1646   1.109       .  S
C1641      H1647   1.086       .  S
C1641      C1642   1.367       .  D
C1642      C1704   1.490       .  S
C1643      H1648   1.084       .  S
C1643      C1644   1.361       .  D
C1644      C1847   1.480       .  S
C1649      C1650   1.549       .  S
C1649      C1655   1.531       .  S
C1649      C1653   1.536       .  S
C1649      C1887   1.539       .  S
C1650      H1657   1.080       .  S
C1650      C1651   1.377       .  D
C1651      C1652   1.546       .  S
C1651      C1677   1.507       .  S
C1652      C1656   1.533       .  S
C1652      C1654   1.541       .  S
C1652      H1658   1.103       .  S
C1653      H1659   1.086       .  S
C1653      C1654   1.363       .  D
C1654      C1787   1.477       .  S
C1655      H1660   1.087       .  S
C1655      C1656   1.360       .  D
C1656      C1924   1.478       .  S
C1661      C1662   1.543       .  S
C1661      C1667   1.523       .  S
C1661      C1665   1.539       .  S
C1661      C1694   1.533       .  S
C1662      H1669   1.085       .  S
C1662      C1663   1.371       .  D
C1663      C1664   1.541       .  S
C1663      C1874   1.493       .  S
C1664      C1668   1.544       .  S
C1664      C1666   1.547       .  S
C1664      H1670   1.109       .  S
C1665      H1671   1.085       .  S
C1665      C1666   1.367       .  D
C1666      C1917   1.482       .  S
C1667      H1672   1.087       .  S
C1667      C1668   1.360       .  D
C1668      C1774   1.483       .  S
C1673      C1674   1.406       .  A
C1673      C1678   1.401       .  A
C1673      H1680   1.083       .  S
C1674      C1675   1.416       .  A
C1675      C1676   1.400       .  A
C1675     Br1682   1.925       .  S
C1676      C1677   1.409       .  A
C1676      H1681   1.083       .  S
C1677      C1678   1.419       .  A
C1678     Br1679   1.918       .  S
C1683      C1684   1.398       .  A
C1683      C1688   1.397       .  A
C1683      H1690   1.079       .  S
C1684      C1685   1.406       .  A
C1685      C1686   1.399       .  A
C1685     Br1692   1.920       .  S
C1686      C1687   1.413       .  A
C1686      H1691   1.083       .  S
C1687      C1688   1.418       .  A
C1688     Br1689   1.923       .  S
C1693      C1694   1.416       .  A
C1693      C1698   1.399       .  A
C1693      H1700   1.080       .  S
C1694      C1695   1.425       .  A
C1695      C1696   1.396       .  A
C1695     Br1702   1.922       .  S
C1696      C1697   1.392       .  A
C1696      H1701   1.084       .  S
C1697      C1698   1.401       .  A
C1698     Br1699   1.923       .  S
C1703      C1704   1.408       .  A
C1703      C1708   1.407       .  A
C1703      H1710   1.083       .  S
C1704      C1705   1.415       .  A
C1705      C1706   1.395       .  A
C1705     Br1712   1.918       .  S
C1706      C1707   1.397       .  A
C1706      H1711   1.084       .  S
C1707      C1708   1.408       .  A
C1708     Br1709   1.920       .  S
C1713      C1714   1.402       .  A
C1713      C1718   1.396       .  A
C1713      H1720   1.084       .  S
C1714      C1715   1.411       .  A
C1715      C1716   1.400       .  A
C1715     Br1722   1.919       .  S
C1716      C1717   1.410       .  A
C1716      H1721   1.078       .  S
C1717      C1718   1.423       .  A
C1718     Br1719   1.928       .  S
C1723      C1724   1.401       .  A
C1723      C1728   1.392       .  A
C1723      H1730   1.084       .  S
C1724      C1725   1.411       .  A
C1725      C1726   1.405       .  A
C1725     Br1732   1.917       .  S
C1726      C1727   1.405       .  A
C1726      H1731   1.084       .  S
C1727      C1728   1.408       .  A
C1728     Br1729   1.919       .  S
C1733      C1734   1.404       .  A
C1733      C1738   1.398       .  A
C1733      H1740   1.084       .  S
C1734      C1735   1.411       .  A
C1735      C1736   1.400       .  A
C1735     Br1742   1.915       .  S
C1736      C1737   1.402       .  A
C1736      H1741   1.084       .  S
C1737      C1738   1.407       .  A
C1738     Br1739   1.919       .  S
C1743      C1744   1.399       .  A
C1743      C1748   1.401       .  A
C1743      H1750   1.084       .  S
C1744      C1745   1.406       .  A
C1745      C1746   1.397       .  A
C1745     Br1752   1.912       .  S
C1746      C1747   1.411       .  A
C1746      H1751   1.074       .  S
C1747      C1748   1.423       .  A
C1748     Br1749   1.925       .  S
C1753      C1754   1.407       .  A
C1753      C1758   1.401       .  A
C1753      H1760   1.083       .  S
C1754      C1755   1.416       .  A
C1755      C1756   1.397       .  A
C1755     Br1762   1.923       .  S
C1756      C1757   1.405       .  A
C1756      H1761   1.077       .  S
C1757      C1758   1.416       .  A
C1758     Br1759   1.921       .  S
C1763      C1764   1.407       .  A
C1763      C1768   1.401       .  A
C1763      H1770   1.083       .  S
C1764      C1765   1.414       .  A
C1765      C1766   1.397       .  A
C1765     Br1772   1.913       .  S
C1766      C1767   1.404       .  A
C1766      H1771   1.083       .  S
C1767      C1768   1.419       .  A
C1768     Br1769   1.924       .  S
C1773      C1774   1.404       .  A
C1773      C1778   1.405       .  A
C1773      H1780   1.083       .  S
C1774      C1775   1.412       .  A
C1775      C1776   1.395       .  A
C1775     Br1782   1.919       .  S
C1776      C1777   1.400       .  A
C1776      H1781   1.084       .  S
C1777      C1778   1.409       .  A
C1778     Br1779   1.917       .  S
C1783      C1784   1.408       .  A
C1783      C1788   1.398       .  A
C1783      H1790   1.083       .  S
C1784      C1785   1.421       .  A
C1785      C1786   1.403       .  A
C1785     Br1792   1.922       .  S
C1786      C1787   1.399       .  A
C1786      H1791   1.084       .  S
C1787      C1788   1.405       .  A
C1788     Br1789   1.921       .  S
C1793      C1794   1.406       .  A
C1793      C1798   1.406       .  A
C1793      H1800   1.083       .  S
C1794      C1795   1.406       .  A
C1795      C1796   1.396       .  A
C1795     Br1802   1.922       .  S
C1796      C1797   1.404       .  A
C1796      H1801   1.084       .  S
C1797      C1798   1.408       .  A
C1798     Br1799   1.917       .  S
C1803      C1804   1.409       .  A
C1803      C1808   1.397       .  A
C1803      H1810   1.083       .  S
C1804      C1805   1.418       .  A
C1805      C1806   1.400       .  A
C1805     Br1812   1.922       .  S
C1806      C1807   1.404       .  A
C1806      H1811   1.084       .  S
C1807      C1808   1.410       .  A
C1808     Br1809   1.912       .  S
C1813      C1814   1.403       .  A
C1813      C1818   1.395       .  A
C1813      H1820   1.084       .  S
C1814      C1815   1.410       .  A
C1815      C1816   1.404       .  A
C1815     Br1822   1.916       .  S
C1816      C1817   1.403       .  A
C1816      H1821   1.084       .  S
C1817      C1818   1.405       .  A
C1818     Br1819   1.920       .  S
C1823      C1824   1.416       .  A
C1823      C1828   1.396       .  A
C1823      H1830   1.078       .  S
C1824      C1825   1.421       .  A
C1825      C1826   1.399       .  A
C1825     Br1832   1.920       .  S
C1826      C1827   1.398       .  A
C1826      H1831   1.084       .  S
C1827      C1828   1.399       .  A
C1828     Br1829   1.918       .  S
C1833      C1834   1.409       .  A
C1833      C1838   1.408       .  A
C1833      H1840   1.083       .  S
C1834      C1835   1.418       .  A
C1835      C1836   1.392       .  A
C1835     Br1842   1.929       .  S
C1836      C1837   1.409       .  A
C1836      H1841   1.070       .  S
C1837      C1838   1.421       .  A
C1838     Br1839   1.924       .  S
C1843      C1844   1.401       .  A
C1843      C1848   1.401       .  A
C1843      H1850   1.084       .  S
C1844      C1845   1.406       .  A
C1845      C1846   1.400       .  A
C1845     Br1852   1.919       .  S
C1846      C1847   1.403       .  A
C1846      H1851   1.084       .  S
C1847      C1848   1.411       .  A
C1848     Br1849   1.916       .  S
C1853      C1854   1.401       .  A
C1853      C1858   1.403       .  A
C1853      H1860   1.084       .  S
C1854      C1855   1.409       .  A
C1855      C1856   1.395       .  A
C1855     Br1862   1.918       .  S
C1856      C1857   1.404       .  A
C1856      H1861   1.084       .  S
C1857      C1858   1.413       .  A
C1858     Br1859   1.918       .  S
C1863      C1864   1.404       .  A
C1863      C1868   1.403       .  A
C1863      H1870   1.083       .  S
C1864      C1865   1.405       .  A
C1865      C1866   1.394       .  A
C1865     Br1872   1.919       .  S
C1866      C1867   1.404       .  A
C1866      H1871   1.084       .  S
C1867      C1868   1.407       .  A
C1868     Br1869   1.916       .  S
C1873      C1874   1.404       .  A
C1873      C1878   1.398       .  A
C1873      H1880   1.083       .  S
C1874      C1875   1.412       .  A
C1875      C1876   1.401       .  A
C1875     Br1882   1.915       .  S
C1876      C1877   1.409       .  A
C1876      H1881   1.083       .  S
C1877      C1878   1.419       .  A
C1878     Br1879   1.924       .  S
C1883      C1884   1.395       .  A
C1883      C1888   1.396       .  A
C1883      H1890   1.084       .  S
C1884      C1885   1.405       .  A
C1885      C1886   1.401       .  A
C1885     Br1892   1.919       .  S
C1886      C1887   1.415       .  A
C1886      H1891   1.075       .  S
C1887      C1888   1.424       .  A
C1888     Br1889   1.925       .  S
C1893      C1894   1.401       .  A
C1893      C1898   1.401       .  A
C1893      H1900   1.083       .  S
C1894      C1895   1.411       .  A
C1895      C1896   1.395       .  A
C1895     Br1902   1.923       .  S
C1896      C1897   1.402       .  A
C1896      H1901   1.084       .  S
C1897      C1898   1.410       .  A
C1898     Br1899   1.918       .  S
C1903      C1904   1.410       .  A
C1903      C1908   1.401       .  A
C1903      H1910   1.083       .  S
C1904      C1905   1.424       .  A
C1905      C1906   1.396       .  A
C1905     Br1912   1.924       .  S
C1906      C1907   1.396       .  A
C1906      H1911   1.082       .  S
C1907      C1908   1.407       .  A
C1908     Br1909   1.916       .  S
C1913      C1914   1.398       .  A
C1913      C1918   1.395       .  A
C1913      H1920   1.084       .  S
C1914      C1915   1.409       .  A
C1915      C1916   1.403       .  A
C1915     Br1922   1.918       .  S
C1916      C1917   1.403       .  A
C1916      H1921   1.083       .  S
C1917      C1918   1.416       .  A
C1918     Br1919   1.922       .  S
C1923      C1924   1.402       .  A
C1923      C1928   1.394       .  A
C1923      H1930   1.084       .  S
C1924      C1925   1.409       .  A
C1925      C1926   1.400       .  A
C1925     Br1932   1.915       .  S
C1926      C1927   1.402       .  A
C1926      H1931   1.084       .  S
C1927      C1928   1.409       .  A
C1928     Br1929   1.918       .  S
C1933      C1934   1.403       .  A
C1933      C1938   1.395       .  A
C1933      H1940   1.084       .  S
C1934      C1935   1.414       .  A
C1935      C1936   1.394       .  A
C1935     Br1942   1.914       .  S
C1936      C1937   1.404       .  A
C1936      H1941   1.083       .  S
C1937      C1938   1.419       .  A
C1938     Br1939   1.925       .  S
C1943      C1944   1.408       .  A
C1943      C1948   1.406       .  A
C1943      H1950   1.083       .  S
C1944      C1945   1.415       .  A
C1945      C1946   1.399       .  A
C1945     Br1952   1.922       .  S
C1946      C1947   1.411       .  A
C1946      H1951   1.079       .  S
C1947      C1948   1.423       .  A
C1948     Br1949   1.923       .  S
C1953      C1954   1.410       .  A
C1953      C1958   1.402       .  A
C1953      H1960   1.083       .  S
C1954      C1955   1.418       .  A
C1955      C1956   1.401       .  A
C1955     Br1962   1.921       .  S
C1956      C1957   1.402       .  A
C1956      H1961   1.082       .  S
C1957      C1958   1.414       .  A
C1958     Br1959   1.921       .  S
C1963      C1964   1.404       .  A
C1963      C1968   1.397       .  A
C1963      H1970   1.084       .  S
C1964      C1965   1.412       .  A
C1965      C1966   1.402       .  A
C1965     Br1972   1.915       .  S
C1966      C1967   1.400       .  A
C1966      H1971   1.084       .  S
C1967      C1968   1.408       .  A
C1968     Br1969   1.922       .  S
C1973      C1974   1.408       .  A
C1973      C1978   1.404       .  A
C1973      H1980   1.083       .  S
C1974      C1975   1.414       .  A
C1975      C1976   1.394       .  A
C1975     Br1982   1.926       .  S
C1976      C1977   1.412       .  A
C1976      H1981   1.079       .  S
C1977      C1978   1.418       .  A
C1978     Br1979   1.921       .  S
C1983      C1984   1.404       .  A
C1983      C1988   1.404       .  A
C1983      H1990   1.084       .  S
C1984      C1985   1.408       .  A
C1985      C1986   1.395       .  A
C1985     Br1992   1.921       .  S
C1986      C1987   1.404       .  A
C1986      H1991   1.084       .  S
C1987      C1988   1.409       .  A
C1988     Br1989   1.914       .  S
O1993     Zr2005   2.435       .  S
O1993      C1995   1.287       .  A
O1994     Zr2031   2.423       .  S
O1994      C1995   1.285       .  A
C1995      C2591   1.467       .  S
O1996     Zr2008   2.459       .  S
O1996      C1998   1.291       .  A
O1997     Zr2032   2.428       .  S
O1997      C1998   1.287       .  A
C1998      C2608   1.494       .  S
O1999     Zr2008   2.436       .  S
O1999      C2001   1.288       .  A
O2000     Zr2031   2.437       .  S
O2000      C2001   1.288       .  A
C2001      C2648   1.474       .  S
O2002     Zr2005   2.431       .  S
O2002      C2004   1.285       .  A
O2003     Zr2032   2.428       .  S
O2003      C2004   1.288       .  A
C2004      C2638   1.487       .  S
Zr2005     O2006   2.433       .  S
Zr2005     O2007   2.438       .  S
Zr2005     O2011   2.372       .  S
Zr2005     O2012   2.373       .  S
Zr2005     O2035   2.370       .  S
Zr2005     O2037   2.363       .  S
O2006      H2049   0.990       .  S
O2007      H2048   0.989       .  S
O2007      H2052   0.990       .  S
Zr2008     O2009   2.435       .  S
Zr2008     O2010   2.432       .  S
Zr2008     O2012   2.361       .  S
Zr2008     O2011   2.375       .  S
Zr2008     O2036   2.375       .  S
Zr2008     O2038   2.373       .  S
O2009      H2050   0.989       .  S
O2009      H2053   0.990       .  S
O2010      H2043   0.990       .  S
O2011     Zr2031   2.382       .  S
O2012     Zr2032   2.382       .  S
O2012      H2039   0.964       .  S
O2013     Zr2025   2.446       .  S
O2013      C2015   1.289       .  A
O2014     Zr2032   2.414       .  S
O2014      C2015   1.284       .  A
C2015      C2578   1.471       .  S
O2016     Zr2028   2.454       .  S
O2016      C2018   1.292       .  A
O2017     Zr2031   2.402       .  S
O2017      C2018   1.280       .  A
C2018      C2601   1.488       .  S
O2019     Zr2028   2.447       .  S
O2019      C2021   1.287       .  A
O2020     Zr2032   2.432       .  S
O2020      C2021   1.289       .  A
C2021      C2618   1.499       .  S
O2022     Zr2025   2.434       .  S
O2022      C2024   1.287       .  A
O2023     Zr2031   2.432       .  S
O2023      C2024   1.288       .  A
C2024      C2628   1.475       .  S
Zr2025     O2026   2.439       .  S
Zr2025     O2027   2.433       .  S
Zr2025     O2033   2.366       .  S
Zr2025     O2034   2.371       .  S
Zr2025     O2037   2.374       .  S
Zr2025     O2035   2.370       .  S
O2026      H2046   0.990       .  S
O2026      H2051   0.990       .  S
O2027      H2047   0.990       .  S
Zr2028     O2029   2.435       .  S
Zr2028     O2030   2.433       .  S
Zr2028     O2034   2.368       .  S
Zr2028     O2033   2.369       .  S
Zr2028     O2038   2.377       .  S
Zr2028     O2036   2.358       .  S
O2029      H2045   0.990       .  S
O2030      H2044   0.990       .  S
O2030      H2054   0.990       .  S
Zr2031     O2034   2.385       .  S
Zr2031     O2036   2.386       .  S
Zr2031     O2037   2.381       .  S
Zr2032     O2033   2.385       .  S
Zr2032     O2035   2.383       .  S
Zr2032     O2038   2.380       .  S
O2033      H2041   0.969       .  S
O2036      H2040   0.963       .  S
O2037      H2042   0.965       .  S
O2055     Zr2067   2.441       .  S
O2055      C2057   1.286       .  A
O2056      C2057   1.286       .  A
C2057      C2568   1.490       .  S
O2058     Zr2070   2.450       .  S
O2058      C2060   1.291       .  A
O2059      C2060   1.286       .  A
C2060      C2528   1.476       .  S
O2061     Zr2070   2.455       .  S
O2061      C2063   1.290       .  A
O2062      C2063   1.286       .  A
C2063      C2548   1.473       .  S
O2064     Zr2067   2.450       .  S
O2064      C2066   1.290       .  A
O2065      C2066   1.284       .  A
C2066      C2541   1.496       .  S
Zr2067     O2068   2.434       .  S
Zr2067     O2069   2.436       .  S
Zr2067     O2073   2.371       .  S
Zr2067     O2074   2.367       .  S
O2068      H2111   0.990       .  S
O2069      H2110   0.990       .  S
O2069      H2114   0.990       .  S
Zr2070     O2071   2.437       .  S
Zr2070     O2072   2.433       .  S
O2071      H2112   0.990       .  S
O2071      H2115   0.990       .  S
O2072      H2105   0.990       .  S
O2074      H2101   0.965       .  S
O2075     Zr2087   2.434       .  S
O2075      C2077   1.286       .  A
O2076     Zr2094   2.419       .  S
O2076      C2077   1.285       .  A
C2077      C2521   1.469       .  S
O2078     Zr2090   2.438       .  S
O2078      C2080   1.286       .  A
O2079      C2080   1.293       .  A
C2080      C2498   1.502       .  S
O2081     Zr2090   2.431       .  S
O2081      C2083   1.286       .  A
O2082      C2083   1.287       .  A
C2083      C2508   1.472       .  S
O2084     Zr2087   2.437       .  S
O2084      C2086   1.287       .  A
O2085     Zr2093   2.426       .  S
O2085      C2086   1.286       .  A
C2086      C2561   1.470       .  S
Zr2087     O2088   2.435       .  S
Zr2087     O2089   2.434       .  S
Zr2087     O2095   2.367       .  S
Zr2087     O2096   2.374       .  S
Zr2087     O2099   2.365       .  S
Zr2087     O2097   2.375       .  S
O2088      H2108   0.990       .  S
O2088      H2113   0.990       .  S
O2089      H2109   0.990       .  S
Zr2090     O2091   2.434       .  S
Zr2090     O2092   2.435       .  S
Zr2090     O2100   2.371       .  S
Zr2090     O2098   2.365       .  S
O2091      H2107   0.990       .  S
O2092      H2106   0.990       .  S
O2092      H2116   0.990       .  S
Zr2093     O2096   2.384       .  S
Zr2093     O2099   2.387       .  S
Zr2094     O2095   2.383       .  S
Zr2094     O2097   2.381       .  S
O2095      H2103   0.966       .  S
O2098      H2102   0.963       .  S
O2099      H2104   0.970       .  S
C2117      C2118   1.544       .  S
C2117      C2123   1.532       .  S
C2117      C2121   1.544       .  S
C2117      C2488   1.537       .  S
C2118      H2125   1.085       .  S
C2118      C2119   1.373       .  D
C2119      C2120   1.544       .  S
C2119      C2571   1.487       .  S
C2120      C2124   1.539       .  S
C2120      C2122   1.537       .  S
C2120      H2126   1.111       .  S
C2121      H2127   1.084       .  S
C2121      C2122   1.360       .  D
C2122      C2631   1.475       .  S
C2123      H2128   1.087       .  S
C2123      C2124   1.361       .  D
C2124      C2478   1.483       .  S
O2129     Zr2141   2.428       .  S
O2129      C2131   1.284       .  A
O2130      C2131   1.290       .  A
C2131      C2491   1.469       .  S
O2132     Zr2144   2.448   1_565  S
O2132      C2134   1.290       .  A
O2133      C2134   1.284       .  A
C2134      C2468   1.494       .  S
O2135     Zr2144   2.453       .  S
O2135      C2137   1.291       .  A
O2136      C2137   1.283       .  A
C2137      C2448   1.486       .  S
O2138     Zr2141   2.450   1_565  S
O2138      C2140   1.289       .  A
O2139      C2140   1.285       .  A
C2140      C2441   1.475       .  S
Zr2141     O2142   2.434       .  S
Zr2141     O2143   2.435   1_545  S
Zr2141     O2147   2.377       .  S
Zr2141     O2148   2.361   1_545  S
O2142      H2185   0.990       .  S
O2143      H2184   0.990   1_565  S
O2143      H2188   0.990       .  S
Zr2144     O2145   2.436       .  S
Zr2144     O2146   2.436       .  S
Zr2144     O2148   2.376   1_545  S
Zr2144     O2147   2.375       .  S
O2145      H2186   0.990   1_545  S
O2145      H2189   0.991       .  S
O2146      H2179   0.990       .  S
O2148      H2175   0.966       .  S
O2149     Zr2161   2.442       .  S
O2149      C2151   1.289       .  A
O2150     Zr2168   2.424       .  S
O2150      C2151   1.285       .  A
C2151      C2458   1.472       .  S
O2152     Zr2164   2.447       .  S
O2152      C2154   1.289       .  A
O2153     Zr2167   2.430       .  S
O2153      C2154   1.289       .  A
C2154      C2418   1.494       .  S
O2155     Zr2164   2.456   1_565  S
O2155      C2157   1.292       .  A
O2156     Zr2168   2.418       .  S
O2156      C2157   1.283       .  A
C2157      C2431   1.496       .  S
O2158     Zr2161   2.458   1_545  S
O2158      C2160   1.291       .  A
O2159     Zr2167   2.420       .  S
O2159      C2160   1.285       .  A
C2160      C2408   1.481       .  S
Zr2161     O2162   2.433       .  S
Zr2161     O2163   2.433       .  S
Zr2161     O2169   2.376       .  S
Zr2161     O2170   2.368   1_565  S
Zr2161     O2173   2.365   1_565  S
Zr2161     O2171   2.369       .  S
O2162      H2182   0.990   1_565  S
O2162      H2187   0.990   1_565  S
O2163      H2183   0.990       .  S
Zr2164     O2165   2.435       .  S
Zr2164     O2166   2.436       .  S
Zr2164     O2170   2.377       .  S
Zr2164     O2169   2.373   1_545  S
Zr2164     O2174   2.371   1_545  S
Zr2164     O2172   2.374       .  S
O2165      H2181   0.990   1_545  S
O2166      H2180   0.990   1_545  S
O2166      H2190   0.990   1_545  S
Zr2167     O2170   2.384       .  S
Zr2167     O2172   2.388       .  S
Zr2167     O2173   2.379       .  S
Zr2168     O2169   2.391       .  S
Zr2168     O2171   2.375       .  S
Zr2168     O2174   2.384       .  S
O2169      H2177   0.965       .  S
O2172      H2176   0.964       .  S
O2173      H2178   0.968       .  S
C2191      C2192   1.542       .  S
C2191      C2197   1.539       .  S
C2191      C2195   1.530       .  S
C2191      C2641   1.538       .  S
C2192      H2199   1.084       .  S
C2192      C2193   1.371       .  D
C2193      C2194   1.545       .  S
C2193      C2398   1.485       .  S
C2194      C2198   1.538       .  S
C2194      C2196   1.545       .  S
C2194      H2200   1.109       .  S
C2195      H2201   1.086       .  S
C2195      C2196   1.368       .  D
C2196      C2471   1.492       .  S
C2197      H2202   1.085       .  S
C2197      C2198   1.357       .  D
C2198      C2531   1.482       .  S
O2203     Zr2215   2.431       .  S
O2203      C2205   1.286       .  A
O2204      C2205   1.287       .  A
C2205      C2391   1.469       .  S
O2206     Zr2218   2.426   1_565  S
O2206      C2208   1.284       .  A
O2207     Zr2242   2.421   1_655  S
O2207      C2208   1.285       .  A
C2208      C2361   1.458       .  S
O2209     Zr2218   2.430       .  S
O2209      C2211   1.285       .  A
O2210      C2211   1.289       .  A
C2211      C2481   1.475       .  S
O2212     Zr2215   2.438   1_565  S
O2212      C2214   1.288       .  A
O2213     Zr2242   2.425   1_655  S
O2213      C2214   1.285       .  A
C2214      C2378   1.483       .  S
Zr2215     O2216   2.434       .  S
Zr2215     O2217   2.436       .  S
Zr2215     O2221   2.375       .  S
Zr2215     O2222   2.368   1_545  S
Zr2215     O2245   2.364   1_645  S
O2216      H2259   0.990       .  S
O2217      H2258   0.989       .  S
O2217      H2262   0.990       .  S
Zr2218     O2219   2.436       .  S
Zr2218     O2220   2.435       .  S
Zr2218     O2222   2.373   1_545  S
Zr2218     O2221   2.369       .  S
Zr2218     O2248   2.373   1_645  S
O2219      H2260   0.990       .  S
O2219      H2263   0.990       .  S
O2220      H2253   0.990       .  S
O2222     Zr2242   2.380   1_655  S
O2222      H2249   0.964       .  S
O2223     Zr2235   2.455   1_565  S
O2223      C2225   1.290       .  A
O2224      C2225   1.285       .  A
C2225      C2371   1.477       .  S
O2226     Zr2238   2.444       .  S
O2226      C2228   1.290       .  A
O2227     Zr2241   2.413       .  S
O2227      C2228   1.283       .  A
C2228      C2338   1.489       .  S
O2229     Zr2238   2.457   1_565  S
O2229      C2231   1.290       .  A
O2230      C2231   1.283       .  A
C2231      C2401   1.470       .  S
O2232     Zr2235   2.452       .  S
O2232      C2234   1.289       .  A
O2233     Zr2241   2.427       .  S
O2233      C2234   1.288       .  A
C2234      C2351   1.495       .  S
Zr2235     O2236   2.437       .  S
Zr2235     O2237   2.433       .  S
Zr2235     O2243   2.368   1_545  S
Zr2235     O2244   2.373       .  S
Zr2235     O2247   2.377       .  S
O2236      H2256   0.990   1_545  S
O2236      H2261   0.990       .  S
O2237      H2257   0.990       .  S
Zr2238     O2239   2.434       .  S
Zr2238     O2240   2.437       .  S
Zr2238     O2244   2.375       .  S
Zr2238     O2243   2.372   1_545  S
Zr2238     O2246   2.377       .  S
O2239      H2255   0.990       .  S
O2240      H2254   0.990       .  S
O2240      H2264   0.990       .  S
Zr2241     O2244   2.387       .  S
Zr2241     O2246   2.386       .  S
Zr2241     O2247   2.388       .  S
Zr2242     O2245   2.376       .  S
Zr2242     O2248   2.383       .  S
O2243      H2251   0.963       .  S
O2246      H2250   0.963       .  S
O2247      H2252   0.963       .  S
C2265      C2266   1.548       .  S
C2265      C2271   1.534       .  S
C2265      C2269   1.529       .  S
C2265      C2381   1.534       .  S
C2266      H2273   1.082       .  S
C2266      C2267   1.371       .  D
C2267      C2268   1.544       .  S
C2267      C2621   1.488       .  S
C2268      C2272   1.539       .  S
C2268      C2270   1.536       .  S
C2268      H2274   1.111       .  S
C2269      H2275   1.087       .  S
C2269      C2270   1.360       .  D
C2270      C2518   1.471       .  S
C2271      H2276   1.086       .  S
C2271      C2272   1.364       .  D
C2272      C2461   1.480       .  S
C2277      C2278   1.542       .  S
C2277      C2283   1.547       .  S
C2277      C2281   1.535       .  S
C2277      C2501   1.550       .  S
C2278      H2285   1.085       .  S
C2278      C2279   1.373       .  D
C2279      C2280   1.544       .  S
C2279      C2421   1.499       .  S
C2280      C2284   1.539       .  S
C2280      C2282   1.547       .  S
C2280      H2286   1.110       .  S
C2281      H2287   1.086       .  S
C2281      C2282   1.363       .  D
C2282      C2348   1.481       .  S
C2283      H2288   1.081       .  S
C2283      C2284   1.365       .  D
C2284      C2651   1.493       .  S
C2289      C2290   1.537       .  S
C2289      C2295   1.530       .  S
C2289      C2293   1.547       .  S
C2289      C2411   1.540       .  S
C2290      H2297   1.086       .  S
C2290      C2291   1.373       .  D
C2291      C2292   1.538       .  S
C2291      C2598   1.488       .  S
C2292      C2296   1.536       .  S
C2292      C2294   1.538       .  S
C2292      H2298   1.109       .  S
C2293      H2299   1.080       .  S
C2293      C2294   1.364       .  D
C2294      C2558   1.478       .  S
C2295      H2300   1.087       .  S
C2295      C2296   1.361       .  D
C2296      C2388   1.476       .  S
C2301      C2302   1.541       .  S
C2301      C2307   1.535       .  S
C2301      C2305   1.535       .  S
C2301      C2611   1.544       .  S
C2302      H2309   1.083       .  S
C2302      C2303   1.375       .  D
C2303      C2304   1.549       .  S
C2303      C2428   1.504       .  S
C2304      C2308   1.540       .  S
C2304      C2306   1.541       .  S
C2304      H2310   1.108       .  S
C2305      H2311   1.086       .  S
C2305      C2306   1.367       .  D
C2306      C2368   1.485       .  S
C2307      H2312   1.085       .  S
C2307      C2308   1.361       .  D
C2308      C2511   1.483       .  S
C2313      C2314   1.551       .  S
C2313      C2319   1.533       .  S
C2313      C2317   1.534       .  S
C2313      C2551   1.541       .  S
C2314      H2321   1.079       .  S
C2314      C2315   1.378       .  D
C2315      C2316   1.542       .  S
C2315      C2341   1.505       .  S
C2316      C2320   1.530       .  S
C2316      C2318   1.540       .  S
C2316      H2322   1.103       .  S
C2317      H2323   1.086       .  S
C2317      C2318   1.363       .  D
C2318      C2451   1.473       .  S
C2319      H2324   1.087       .  S
C2319      C2320   1.359       .  D
C2320      C2588   1.473       .  S
C2325      C2326   1.537       .  S
C2325      C2331   1.526       .  S
C2325      C2329   1.541       .  S
C2325      C2358   1.529       .  S
C2326      H2333   1.085       .  S
C2326      C2327   1.370       .  D
C2327      C2328   1.546       .  S
C2327      C2538   1.497       .  S
C2328      C2332   1.542       .  S
C2328      C2330   1.546       .  S
C2328      H2334   1.108       .  S
C2329      H2335   1.085       .  S
C2329      C2330   1.365       .  D
C2330      C2581   1.479       .  S
C2331      H2336   1.087       .  S
C2331      C2332   1.359       .  D
C2332      C2438   1.481       .  S
C2337      C2338   1.404       .  A
C2337      C2342   1.399       .  A
C2337      H2344   1.084       .  S
C2338      C2339   1.415       .  A
C2339      C2340   1.398       .  A
C2339     Br2346   1.925       .  S
C2340      C2341   1.409       .  A
C2340      H2345   1.083       .  S
C2341      C2342   1.421       .  A
C2342     Br2343   1.919       .  S
C2347      C2348   1.398       .  A
C2347      C2352   1.398       .  A
C2347      H2354   1.080       .  S
C2348      C2349   1.407       .  A
C2349      C2350   1.401       .  A
C2349     Br2356   1.919       .  S
C2350      C2351   1.411       .  A
C2350      H2355   1.083       .  S
C2351      C2352   1.419       .  A
C2352     Br2353   1.921       .  S
C2357      C2358   1.413       .  A
C2357      C2362   1.396       .  A
C2357      H2364   1.081       .  S
C2358      C2359   1.424       .  A
C2359      C2360   1.397       .  A
C2359     Br2366   1.924       .  S
C2360      C2361   1.395       .  A
C2360      H2365   1.084       .  S
C2361      C2362   1.400       .  A
C2362     Br2363   1.922       .  S
C2367      C2368   1.406       .  A
C2367      C2372   1.406       .  A
C2367      H2374   1.084       .  S
C2368      C2369   1.411       .  A
C2369      C2370   1.397       .  A
C2369     Br2376   1.919       .  S
C2370      C2371   1.400       .  A
C2370      H2375   1.084       .  S
C2371      C2372   1.411       .  A
C2372     Br2373   1.919       .  S
C2377      C2378   1.402       .  A
C2377      C2382   1.397       .  A
C2377      H2384   1.084       .  S
C2378      C2379   1.411       .  A
C2379      C2380   1.400       .  A
C2379     Br2386   1.920       .  S
C2380      C2381   1.411       .  A
C2380      H2385   1.078       .  S
C2381      C2382   1.422       .  A
C2382     Br2383   1.926       .  S
C2387      C2388   1.401       .  A
C2387      C2392   1.393       .  A
C2387      H2394   1.084       .  S
C2388      C2389   1.410       .  A
C2389      C2390   1.403       .  A
C2389     Br2396   1.917       .  S
C2390      C2391   1.403       .  A
C2390      H2395   1.083       .  S
C2391      C2392   1.407       .  A
C2392     Br2393   1.919       .  S
C2397      C2398   1.406       .  A
C2397      C2402   1.399       .  A
C2397      H2404   1.084       .  S
C2398      C2399   1.411       .  A
C2399      C2400   1.401       .  A
C2399     Br2406   1.914       .  S
C2400      C2401   1.401       .  A
C2400      H2405   1.084       .  S
C2401      C2402   1.406       .  A
C2402     Br2403   1.920       .  S
C2407      C2408   1.401       .  A
C2407      C2412   1.403       .  A
C2407      H2414   1.084       .  S
C2408      C2409   1.406       .  A
C2409      C2410   1.396       .  A
C2409     Br2416   1.914       .  S
C2410      C2411   1.410       .  A
C2410      H2415   1.074       .  S
C2411      C2412   1.424       .  A
C2412     Br2413   1.924       .  S
C2417      C2418   1.407       .  A
C2417      C2422   1.402       .  A
C2417      H2424   1.083       .  S
C2418      C2419   1.416       .  A
C2419      C2420   1.400       .  A
C2419     Br2426   1.922       .  S
C2420      C2421   1.405       .  A
C2420      H2425   1.079       .  S
C2421      C2422   1.414       .  A
C2422     Br2423   1.920       .  S
C2427      C2428   1.408       .  A
C2427      C2432   1.401       .  A
C2427      H2434   1.083       .  S
C2428      C2429   1.417       .  A
C2429      C2430   1.400       .  A
C2429     Br2436   1.914       .  S
C2430      C2431   1.405       .  A
C2430      H2435   1.083       .  S
C2431      C2432   1.418       .  A
C2432     Br2433   1.923       .  S
C2437      C2438   1.403       .  A
C2437      C2442   1.399       .  A
C2437      H2444   1.084       .  S
C2438      C2439   1.409       .  A
C2439      C2440   1.405       .  A
C2439     Br2446   1.918       .  S
C2440      C2441   1.405       .  A
C2440      H2445   1.084       .  S
C2441      C2442   1.407       .  A
C2442     Br2443   1.920       .  S
C2447      C2448   1.407       .  A
C2447      C2452   1.396       .  A
C2447      H2454   1.083       .  S
C2448      C2449   1.420       .  A
C2449      C2450   1.402       .  A
C2449     Br2456   1.923       .  S
C2450      C2451   1.399       .  A
C2450      H2455   1.084       .  S
C2451      C2452   1.405       .  A
C2452     Br2453   1.922       .  S
C2457      C2458   1.405       .  A
C2457      C2462   1.404       .  A
C2457      H2464   1.083       .  S
C2458      C2459   1.407       .  A
C2459      C2460   1.394       .  A
C2459     Br2466   1.920       .  S
C2460      C2461   1.403       .  A
C2460      H2465   1.084       .  S
C2461      C2462   1.408       .  A
C2462     Br2463   1.916       .  S
C2467      C2468   1.408       .  A
C2467      C2472   1.398       .  A
C2467      H2474   1.083       .  S
C2468      C2469   1.419       .  A
C2469      C2470   1.399       .  A
C2469     Br2476   1.924       .  S
C2470      C2471   1.405       .  A
C2470      H2475   1.083       .  S
C2471      C2472   1.412       .  A
C2472     Br2473   1.915       .  S
C2477      C2478   1.403       .  A
C2477      C2482   1.400       .  A
C2477      H2484   1.084       .  S
C2478      C2479   1.410       .  A
C2479      C2480   1.405       .  A
C2479     Br2486   1.916       .  S
C2480      C2481   1.404       .  A
C2480      H2485   1.084       .  S
C2481      C2482   1.407       .  A
C2482     Br2483   1.920       .  S
C2487      C2488   1.417       .  A
C2487      C2492   1.398       .  A
C2487      H2494   1.078       .  S
C2488      C2489   1.422       .  A
C2489      C2490   1.399       .  A
C2489     Br2496   1.920       .  S
C2490      C2491   1.398       .  A
C2490      H2495   1.084       .  S
C2491      C2492   1.399       .  A
C2492     Br2493   1.919       .  S
C2497      C2498   1.407       .  A
C2497      C2502   1.409       .  A
C2497      H2504   1.083       .  S
C2498      C2499   1.418       .  A
C2499      C2500   1.397       .  A
C2499     Br2506   1.924       .  S
C2500      C2501   1.409       .  A
C2500      H2505   1.075       .  S
C2501      C2502   1.423       .  A
C2502     Br2503   1.923       .  S
C2507      C2508   1.404       .  A
C2507      C2512   1.405       .  A
C2507      H2514   1.083       .  S
C2508      C2509   1.408       .  A
C2509      C2510   1.392       .  A
C2509     Br2516   1.922       .  S
C2510      C2511   1.404       .  A
C2510      H2515   1.084       .  S
C2511      C2512   1.411       .  A
C2512     Br2513   1.916       .  S
C2517      C2518   1.401       .  A
C2517      C2522   1.401       .  A
C2517      H2524   1.084       .  S
C2518      C2519   1.408       .  A
C2519      C2520   1.394       .  A
C2519     Br2526   1.921       .  S
C2520      C2521   1.402       .  A
C2520      H2525   1.084       .  S
C2521      C2522   1.410       .  A
C2522     Br2523   1.919       .  S
C2527      C2528   1.407       .  A
C2527      C2532   1.407       .  A
C2527      H2534   1.084       .  S
C2528      C2529   1.406       .  A
C2529      C2530   1.394       .  A
C2529     Br2536   1.919       .  S
C2530      C2531   1.404       .  A
C2530      H2535   1.084       .  S
C2531      C2532   1.408       .  A
C2532     Br2533   1.918       .  S
C2537      C2538   1.406       .  A
C2537      C2542   1.397       .  A
C2537      H2544   1.083       .  S
C2538      C2539   1.413       .  A
C2539      C2540   1.402       .  A
C2539     Br2546   1.916       .  S
C2540      C2541   1.409       .  A
C2540      H2545   1.083       .  S
C2541      C2542   1.418       .  A
C2542     Br2543   1.925       .  S
C2547      C2548   1.397       .  A
C2547      C2552   1.400       .  A
C2547      H2554   1.084       .  S
C2548      C2549   1.403       .  A
C2549      C2550   1.400       .  A
C2549     Br2556   1.919       .  S
C2550      C2551   1.414       .  A
C2550      H2555   1.075       .  S
C2551      C2552   1.426       .  A
C2552     Br2553   1.926       .  S
C2557      C2558   1.402       .  A
C2557      C2562   1.402       .  A
C2557      H2564   1.083       .  S
C2558      C2559   1.412       .  A
C2559      C2560   1.395       .  A
C2559     Br2566   1.923       .  S
C2560      C2561   1.400       .  A
C2560      H2565   1.084       .  S
C2561      C2562   1.409       .  A
C2562     Br2563   1.917       .  S
C2567      C2568   1.410       .  A
C2567      C2572   1.398       .  A
C2567      H2574   1.083       .  S
C2568      C2569   1.418       .  A
C2569      C2570   1.395       .  A
C2569     Br2576   1.922       .  S
C2570      C2571   1.400       .  A
C2570      H2575   1.081       .  S
C2571      C2572   1.409       .  A
C2572     Br2573   1.916       .  S
C2577      C2578   1.400       .  A
C2577      C2582   1.395       .  A
C2577      H2584   1.084       .  S
C2578      C2579   1.411       .  A
C2579      C2580   1.402       .  A
C2579     Br2586   1.919       .  S
C2580      C2581   1.402       .  A
C2580      H2585   1.083       .  S
C2581      C2582   1.413       .  A
C2582     Br2583   1.921       .  S
C2587      C2588   1.401       .  A
C2587      C2592   1.395       .  A
C2587      H2594   1.084       .  S
C2588      C2589   1.408       .  A
C2589      C2590   1.400       .  A
C2589     Br2596   1.917       .  S
C2590      C2591   1.403       .  A
C2590      H2595   1.084       .  S
C2591      C2592   1.407       .  A
C2592     Br2593   1.918       .  S
C2597      C2598   1.402       .  A
C2597      C2602   1.396       .  A
C2597      H2604   1.084       .  S
C2598      C2599   1.414       .  A
C2599      C2600   1.395       .  A
C2599     Br2606   1.913       .  S
C2600      C2601   1.404       .  A
C2600      H2605   1.083       .  S
C2601      C2602   1.419       .  A
C2602     Br2603   1.923       .  S
C2607      C2608   1.407       .  A
C2607      C2612   1.405       .  A
C2607      H2614   1.083       .  S
C2608      C2609   1.412       .  A
C2609      C2610   1.399       .  A
C2609     Br2616   1.921       .  S
C2610      C2611   1.413       .  A
C2610      H2615   1.080       .  S
C2611      C2612   1.420       .  A
C2612     Br2613   1.922       .  S
C2617      C2618   1.411       .  A
C2617      C2622   1.401       .  A
C2617      H2624   1.083       .  S
C2618      C2619   1.422       .  A
C2619      C2620   1.400       .  A
C2619     Br2626   1.923       .  S
C2620      C2621   1.400       .  A
C2620      H2625   1.083       .  S
C2621      C2622   1.410       .  A
C2622     Br2623   1.920       .  S
C2627      C2628   1.403       .  A
C2627      C2632   1.395       .  A
C2627      H2634   1.084       .  S
C2628      C2629   1.411       .  A
C2629      C2630   1.401       .  A
C2629     Br2636   1.916       .  S
C2630      C2631   1.400       .  A
C2630      H2635   1.084       .  S
C2631      C2632   1.410       .  A
C2632     Br2633   1.919       .  S
C2637      C2638   1.407       .  A
C2637      C2642   1.403       .  A
C2637      H2644   1.083       .  S
C2638      C2639   1.412       .  A
C2639      C2640   1.392       .  A
C2639     Br2646   1.926       .  S
C2640      C2641   1.411       .  A
C2640      H2645   1.080       .  S
C2641      C2642   1.419       .  A
C2642     Br2643   1.921       .  S
C2647      C2648   1.402       .  A
C2647      C2652   1.405       .  A
C2647      H2654   1.084       .  S
C2648      C2649   1.408       .  A
C2649      C2650   1.396       .  A
C2649     Br2656   1.923       .  S
C2650      C2651   1.406       .  A
C2650      H2655   1.084       .  S
C2651      C2652   1.414       .  A
C2652     Br2653   1.911       .  S
