geometry optimzed in LAMMPS
_audit_creation_date              2020-11-30 
_audit_creation_method            'lammps2cif' 
_symmetry_space_group_name_H-M    'P1' 
_symmetry_Int_Tables_number       1 
_symmetry_cell_setting            triclinic 
loop_ 
_symmetry_equiv_pos_as_xyz 
  x,y,z 
_cell_length_a                    46.16585078430822 
_cell_length_b                    41.83085324947195 
_cell_length_c                    29.718059195394957 
_cell_angle_alpha                 89.74138821278302 
_cell_angle_beta                  90.06726769380757 
_cell_angle_gamma                 91.06347785980503 
loop_ 
_atom_site_label 
_atom_site_type_symbol 
_atom_site_fract_x 
_atom_site_fract_y 
_atom_site_fract_z 
_atom_site_charge 
C1          C  0.59241790  0.97029896  0.82737170     0.03770
C2          C  0.56424810  0.98149618  0.81592671    -0.12380
C3          C  0.54695025  0.49389225  0.85025138     0.01270
C4          C  0.56071918  0.49878952  0.89166760    -0.10910
C5          C  0.58140680  0.47752061  0.90670180     0.03760
C6          C  0.59831916  0.96312768  0.87345992    -0.10330
H7          H  0.55669102  0.98201545  0.78145277     0.09350
H8          H  0.55101817  0.51395703  0.91577746     0.06880
H9          H  0.61627980  0.94829929  0.88293781     0.06730
O10         O  0.67299248  0.48374915  0.64329400    -0.57180
C11         C  0.72055361  0.48980497  0.52338422     0.75450
O12         O  0.76390205  0.02758936  0.64239313    -0.58330
C13         C  0.67839105  0.48238107  0.68504556     0.75420
C14         C  0.75077622  0.42810613  0.63221759     0.77820
Cd15       Cd  0.72454949  0.48953566  0.62008813     1.37470
O16         O  0.69795630  0.49107081  0.54742699    -0.57170
O17         O  0.72647065  0.43178139  0.61363000    -0.55980
C18         C  0.74982624  0.05272621  0.63422849     0.77780
O19         O  0.76362404  0.45346884  0.64543489    -0.58350
O20         O  0.74429223  0.48884002  0.54461315    -0.56810
O21         O  0.70480816  0.48539028  0.69597790    -0.56800
O22         O  0.72405987  0.04827833  0.62093551    -0.55970
O23         O  0.35860588  0.49294385  0.54882445    -0.57180
C24         C  0.38100244  0.50432444  0.68679004     0.75450
O25         O  0.29528367  0.03229816  0.65047639    -0.58330
C26         C  0.33538657  0.49598169  0.52634365     0.75420
C27         C  0.30910053  0.43364562  0.63634885     0.77820
Cd28       Cd  0.33408553  0.49696973  0.62318530     1.37470
O29         O  0.38560315  0.50632426  0.64484277    -0.57170
O30         O  0.33469743  0.43834815  0.62245320    -0.55980
C31         C  0.30682939  0.05778505  0.63503278     0.77780
O32         O  0.29517228  0.45855760  0.64602830    -0.58350
O33         O  0.35517694  0.49790962  0.69846304    -0.56810
O34         O  0.31272865  0.49954460  0.54927534    -0.56800
O35         O  0.33085443  0.05453407  0.61530885    -0.55970
C36         C  0.46745944  0.51769624  0.82781184     0.03770
C37         C  0.49645542  0.50949185  0.81625875    -0.12380
C38         C  0.51447546  0.49759900  0.85033564     0.01270
C39         C  0.50092195  0.49053717  0.89111763    -0.10910
C40         C  0.47855792  0.50907548  0.90692520     0.03760
C41         C  0.46043941  0.52237102  0.87410524    -0.10330
H42         H  0.50395504  0.51045145  0.78177314     0.09350
H43         H  0.51127186  0.47515489  0.91424773     0.06880
H44         H  0.44062366  0.53388804  0.88385379     0.06730
O45         O  0.17810493  0.23321827  0.64856215    -0.57180
C46         C  0.22002622  0.24328224  0.52578967     0.75450
O47         O  0.26712707  0.28274350  0.64373055    -0.58330
C48         C  0.18415226  0.23761812  0.68969829     0.75420
C49         C  0.25723797  0.18432333  0.63340422     0.77820
Cd50       Cd  0.22823268  0.24401074  0.62156447     1.37470
O51         O  0.19956036  0.25087699  0.55176728    -0.57170
O52         O  0.23062328  0.18590488  0.62365214    -0.55980
C53         C  0.25332882  0.30756984  0.63286626     0.77780
O54         O  0.27055271  0.21076486  0.63916650    -0.58350
O55         O  0.24363646  0.23586653  0.54432026    -0.56810
O56         O  0.21017690  0.24508477  0.69855079    -0.56800
O57         O  0.22812152  0.30255815  0.61761510    -0.55970
C58         C  0.09575007  0.22257143  0.82650854     0.03770
C59         C  0.06638145  0.22622753  0.81252243    -0.12380
C60         C  0.04660835  0.23908775  0.84301875     0.01270
C61         C  0.05813813  0.25149436  0.88266810    -0.10910
C62         C  0.08253389  0.23830644  0.90242773     0.03760
C63         C  0.10274370  0.22499909  0.87317697    -0.10330
H64         H  0.05952105  0.22057579  0.77859917     0.09350
H65         H  0.04506187  0.26655490  0.90238740     0.06880
H66         H  0.12386808  0.21835150  0.88558595     0.06730
C67         C  0.96646544  0.25468171  0.82226385     0.03770
C68         C  0.99562293  0.24873345  0.81008498    -0.12380
C69         C  0.01414874  0.23550066  0.84234984     0.01270
C70         C  0.00148125  0.22544905  0.88302761    -0.10910
C71         C  0.97733241  0.24099205  0.89989088     0.03760
C72         C  0.95844955  0.25434240  0.86833703    -0.10330
H73         H  0.00327666  0.25344587  0.77623232     0.09350
H74         H  0.01360751  0.21050751  0.90495452     0.06880
H75         H  0.93764569  0.26316599  0.87894047     0.06730
O76         O  0.85668689  0.23951367  0.55041784    -0.57180
C77         C  0.87661137  0.24701287  0.68814986     0.75450
O78         O  0.79171853  0.27884838  0.64740355    -0.58330
C79         C  0.83395882  0.24230334  0.52672465     0.75420
C80         C  0.80575227  0.17888043  0.63570515     0.77820
Cd81       Cd  0.83065587  0.24249824  0.62342508     1.37470
O82         O  0.88185208  0.24889686  0.64638230    -0.57170
O83         O  0.83118431  0.18398363  0.62143119    -0.55980
C84         C  0.80514160  0.30418425  0.63511137     0.77780
O85         O  0.79175123  0.20366425  0.64588876    -0.58350
O86         O  0.85044798  0.24294931  0.69972408    -0.56810
O87         O  0.81070878  0.24525680  0.54843225    -0.56800
O88         O  0.82990500  0.30038739  0.61823879    -0.55970
C89         C  0.59513367  0.49085141  0.02980223     0.03770
C90         C  0.60268796  0.48105702  0.98563486    -0.12380
C91         C  0.58083413  0.47025675  0.95625150     0.01270
C92         C  0.55315790  0.46499174  0.97505397    -0.10910
C93         C  0.54415934  0.48410174  0.01094601     0.03760
C94         C  0.56572162  0.49727888  0.03872328    -0.10330
H95         H  0.62493317  0.48201735  0.97416986     0.09350
H96         H  0.53744965  0.45114347  0.95648641     0.06880
H97         H  0.55975678  0.51193796  0.06698655     0.06730
O98         O  0.68066030  0.49041262  0.20525854    -0.57180
C99         C  0.72638984  0.48883231  0.32803950     0.75450
O100        O  0.77178544  0.45598799  0.21019132    -0.58330
C101        C  0.68683854  0.49287009  0.16377435     0.75420
C102        C  0.75532239  0.05360800  0.22179295     0.77910
Cd103      Cd  0.73117459  0.49047358  0.23165542     1.37470
O104        O  0.70391309  0.48606174  0.30359757    -0.57170
O105        O  0.73062689  0.04811544  0.23863223    -0.55980
C106        C  0.75871283  0.42986391  0.21922160     0.77780
O107        O  0.76911065  0.02931882  0.20893310    -0.58350
O108        O  0.75008013  0.49285664  0.30744545    -0.56810
O109        O  0.71349045  0.49349715  0.15422287    -0.56800
O110        O  0.73272597  0.43216475  0.23215798    -0.55970
O111        O  0.37859827  0.49515247  0.20520218    -0.57180
C112        C  0.33597110  0.49636592  0.33008480     0.75450
O113        O  0.29106862  0.03472106  0.20890031    -0.58330
C114        C  0.37167615  0.49352176  0.16390144     0.75420
C115        C  0.30155736  0.43599925  0.22653421     0.77820
Cd116      Cd  0.32891261  0.49733299  0.23371464     1.37470
O117        O  0.35792161  0.49836804  0.30457351    -0.57170
O118        O  0.32865964  0.43936635  0.23099362    -0.55980
C119        C  0.30490199  0.05981564  0.22069398     0.77780
O120        O  0.28686556  0.46120526  0.22321388    -0.58350
O121        O  0.31173755  0.49496373  0.31027381    -0.56810
O122        O  0.34487502  0.99438654  0.15536263    -0.56800
O123        O  0.32974958  0.05549937  0.23720103    -0.55970
C124        C  0.46249909  0.99040244  0.02843525     0.03770
C125        C  0.45566673  0.00254309  0.98489201    -0.12380
C126        C  0.47821127  0.01381787  0.95706884     0.01270
C127        C  0.50564243  0.01744425  0.97740087    -0.10910
C128        C  0.51375365  0.99571982  0.01092455     0.03760
C129        C  0.49154552  0.98174844  0.03682723    -0.10330
H130        H  0.43355407  0.00337837  0.97290881     0.09350
H131        H  0.52201150  0.03139650  0.96037130     0.06880
H132        H  0.49676462  0.96526385  0.06359610     0.06730
O133        O  0.17567747  0.24831615  0.21020905    -0.57180
C134        C  0.22020586  0.24199423  0.33197124     0.75450
O135        O  0.26534515  0.20963631  0.21450726    -0.58330
C136        C  0.18157118  0.25258015  0.16900696     0.75420
C137        C  0.25378894  0.30776539  0.22915426     0.77820
Cd138      Cd  0.22626881  0.24602283  0.23615923     1.37470
O139        O  0.19825210  0.24658401  0.30724089    -0.57170
O140        O  0.22968771  0.30308978  0.24844868    -0.55980
C141        C  0.25062048  0.18410446  0.22087250     0.77780
O142        O  0.26573095  0.28328960  0.21312289    -0.58350
O143        O  0.24429843  0.23958291  0.31229686    -0.56810
O144        O  0.20824817  0.25274014  0.15922915    -0.56800
O145        O  0.22459282  0.18774234  0.23260301    -0.55970
C146        C  0.09735733  0.26278599  0.02331303     0.03770
C147        C  0.10456241  0.25017728  0.98025017    -0.12380
C148        C  0.08265222  0.23729398  0.95298071     0.01270
C149        C  0.05590616  0.23129254  0.97352796    -0.10910
C150        C  0.04608621  0.25158050  0.00697047     0.03760
C151        C  0.06729154  0.26757622  0.03278662    -0.10330
H152        H  0.12641204  0.24887440  0.96818472     0.09350
H153        H  0.04066083  0.21570139  0.95749104     0.06880
H154        H  0.06063849  0.28180500  0.06117489     0.06730
C155        C  0.96676836  0.23463122  0.02713922     0.03770
C156        C  0.95954832  0.23336948  0.98065728    -0.12380
C157        C  0.97764095  0.24856594  0.94910721     0.01270
C158        C  0.00174975  0.26572274  0.96562585    -0.10910
C159        C  0.01408912  0.25751108  0.00720790     0.03760
C160        C  0.99539081  0.24413494  0.03964208    -0.10330
H161        H  0.93963125  0.22176936  0.96957362     0.09350
H162        H  0.01356253  0.28132533  0.94334656     0.06880
H163        H  0.00301445  0.24151966  0.07384019     0.06730
O164        O  0.88576927  0.23895070  0.20644554    -0.57180
C165        C  0.83948578  0.24237901  0.33074878     0.75450
O166        O  0.79496501  0.27696924  0.21180695    -0.58330
C167        C  0.87843943  0.23802210  0.16529101     0.75420
C168        C  0.80922239  0.17964981  0.22364696     0.77820
Cd169      Cd  0.83498131  0.24185649  0.23422757     1.37460
O170        O  0.86190254  0.24632643  0.30658119    -0.57170
O171        O  0.83423103  0.18416647  0.23993682    -0.55980
C172        C  0.80818169  0.30298687  0.22055394     0.77780
O173        O  0.79564775  0.20450425  0.21216601    -0.58350
O174        O  0.81594383  0.23830437  0.30955198    -0.56810
O175        O  0.85161645  0.23903408  0.15729878    -0.56800
O176        O  0.83408866  0.30037840  0.23394472    -0.55970
C177        C  0.91773491  0.24721670  0.05319923    -0.05140
C178        C  0.94339173  0.23052747  0.06143456     0.00780
C179        C  0.94662787  0.21442635  0.10326272    -0.07790
C180        C  0.92544785  0.21854014  0.13673600    -0.05160
C181        C  0.89998879  0.23555505  0.12845666     0.00770
C182        C  0.89561012  0.24938113  0.08530707    -0.07700
C183        C  0.86823957  0.26725702  0.07306441     0.62680
H184        H  0.91540368  0.25953088  0.02133513     0.13380
H185        H  0.92832152  0.20720245  0.16928322     0.13390
C186        C  0.97105986  0.19177935  0.11379431     0.62920
F187        F  0.87017375  0.28162733  0.03108362    -0.22250
F188        F  0.86331602  0.29101234  0.10423026    -0.19580
F189        F  0.84483137  0.24614515  0.07204638    -0.19260
F190        F  0.99007096  0.20615400  0.14384134    -0.19310
F191        F  0.98603615  0.18280679  0.07577125    -0.19630
F192        F  0.95982978  0.16411933  0.13330535    -0.22300
C193        C  0.16873594  0.26655018  0.09036489    -0.05140
C194        C  0.15908367  0.25752352  0.13355193     0.00780
C195        C  0.12882717  0.25406594  0.14109469    -0.07790
C196        C  0.10991534  0.25715372  0.10426450    -0.05160
C197        C  0.11944204  0.26575370  0.06062510     0.00770
C198        C  0.14961425  0.27235342  0.05444937    -0.07700
C199        C  0.16305018  0.28610735  0.01174059     0.62680
H200        H  0.19176913  0.27000370  0.08466158     0.13380
H201        H  0.08725517  0.25145195  0.10946010     0.13390
C202        C  0.11607330  0.24666255  0.18726125     0.62920
F203        F  0.18506659  0.30772828  0.02234565    -0.22250
F204        F  0.14312616  0.30240267  0.98604785    -0.19580
F205        F  0.17497086  0.26172477  0.98690146    -0.19260
F206        F  0.12377694  0.27073371  0.21697551    -0.19310
F207        F  0.12607235  0.21767302  0.20282081    -0.19630
F208        F  0.08609757  0.24469200  0.18642294    -0.22300
C209        C  0.26180990  0.09380615  0.21254486    -0.05140
C210        C  0.29206153  0.09218029  0.21696316     0.00780
C211        C  0.30868253  0.12112521  0.21906608    -0.07790
C212        C  0.29410737  0.15037991  0.21876993    -0.05160
C213        C  0.26375109  0.15194177  0.21673152     0.00770
C214        C  0.24722992  0.12306950  0.21247549    -0.07700
C215        C  0.21440010  0.12264395  0.20793604     0.62680
H216        H  0.24936643  0.07166692  0.21065166     0.13380
H217        H  0.30650575  0.17248593  0.22173338     0.13390
C218        C  0.34161112  0.12165943  0.22172126     0.62920
F219        F  0.20348691  0.09242957  0.19803078    -0.22250
F220        F  0.20622182  0.14292965  0.17347559    -0.19580
F221        F  0.20196847  0.13214661  0.24791260    -0.19260
F222        F  0.35290104  0.10341682  0.18744466    -0.19310
F223        F  0.35043106  0.10980022  0.26294034    -0.19630
F224        F  0.35313830  0.15230772  0.21730624    -0.22300
C225        C  0.29598471  0.38280208  0.19230244    -0.05140
C226        C  0.28805291  0.40398010  0.22630178     0.00780
C227        C  0.26961108  0.39349353  0.26145055    -0.07790
C228        C  0.25916938  0.36181011  0.26090669    -0.05160
C229        C  0.26687219  0.34035549  0.22681820     0.00770
C230        C  0.28552191  0.35099647  0.19159040    -0.07700
C231        C  0.29395006  0.32943734  0.15295324     0.62680
H232        H  0.31059182  0.39148674  0.16629159     0.13380
H233        H  0.24507173  0.35340957  0.28772825     0.13390
C234        C  0.26194009  0.41533349  0.30022050     0.62920
F235        F  0.30964285  0.34587575  0.12028147    -0.22250
F236        F  0.26930669  0.31677086  0.13275191    -0.19580
F237        F  0.31093232  0.30494905  0.16885277    -0.19260
F238        F  0.24659920  0.44109201  0.28425399    -0.19310
F239        F  0.28700782  0.42631999  0.32103239    -0.19630
F240        F  0.24508940  0.39973654  0.33230567    -0.22300
C241        C  0.42235392  0.50107845  0.13966611    -0.05140
C242        C  0.39413339  0.99129000  0.12811457     0.00780
C243        C  0.38859872  0.98000849  0.08376535    -0.07790
C244        C  0.41199359  0.97784782  0.05350892    -0.05160
C245        C  0.44014033  0.98850557  0.06475673     0.00770
C246        C  0.44526482  0.50115122  0.10866517    -0.07700
C247        C  0.47406402  0.51638120  0.12322521     0.62680
H248        H  0.42628413  0.50976465  0.17342256     0.13380
H249        H  0.40826738  0.96851701  0.02006568     0.13390
C250        C  0.35832006  0.97071102  0.06771535     0.62920
F251        F  0.47134858  0.53375143  0.16251053    -0.22250
F252        F  0.48430717  0.03732048  0.09053638    -0.19580
F253        F  0.49417509  0.49300899  0.13137972    -0.19260
F254        F  0.34081925  0.99720110  0.06849980    -0.19310
F255        F  0.34668812  0.44696221  0.09513525    -0.19630
F256        F  0.35832822  0.95930437  0.02404982    -0.22300
C257        C  0.75388280  0.37107270  0.21290809    -0.05140
C258        C  0.77246639  0.39800809  0.21562252     0.00780
C259        C  0.80284726  0.39343858  0.21780549    -0.07790
C260        C  0.81323721  0.36201476  0.21763436    -0.05160
C261        C  0.79461978  0.33500726  0.21627897     0.00770
C262        C  0.76421494  0.33962608  0.21356338    -0.07700
C263        C  0.74240543  0.31192485  0.21270754     0.62680
H264        H  0.73079022  0.37488045  0.21094375     0.13380
H265        H  0.83634969  0.35831295  0.21932576     0.13390
C266        C  0.82441259  0.42120027  0.22190336     0.62920
F267        F  0.71407777  0.32226473  0.21209619    -0.22250
F268        F  0.74570889  0.29310077  0.25069744    -0.19580
F269        F  0.74648481  0.29378864  0.17452428    -0.19260
F270        F  0.81798979  0.43924072  0.25938139    -0.19310
F271        F  0.82330060  0.44011692  0.18368475    -0.19630
F272        F  0.85260907  0.41093428  0.22658034    -0.22300
C273        C  0.79829364  0.08929665  0.21509363    -0.05140
C274        C  0.76803558  0.08643045  0.21877373     0.00780
C275        C  0.75126229  0.11459726  0.22048029    -0.07790
C276        C  0.76575041  0.14445155  0.22079683    -0.05160
C277        C  0.79607976  0.14717575  0.21959758     0.00770
C278        C  0.81274654  0.11913577  0.21541258    -0.07700
C279        C  0.84558251  0.12026485  0.21099273     0.62680
H280        H  0.81081982  0.06771429  0.21338708     0.13380
H281        H  0.75335980  0.16608092  0.22351411     0.13390
C282        C  0.71830677  0.11367248  0.22188751     0.62920
F283        F  0.85655556  0.09072747  0.19998769    -0.22250
F284        F  0.85799334  0.12956392  0.25135124    -0.19580
F285        F  0.85371910  0.14156974  0.17735656    -0.19260
F286        F  0.70892664  0.10151105  0.26281081    -0.19310
F287        F  0.70755917  0.09485387  0.18729066    -0.19630
F288        F  0.70677932  0.14381133  0.21687629    -0.22300
C289        C  0.64413374  0.50875155  0.05556611    -0.05140
C290        C  0.61747967  0.49372070  0.06591570     0.00780
C291        C  0.61398758  0.47842219  0.10859463    -0.07790
C292        C  0.63700234  0.47988357  0.13947256    -0.05160
C293        C  0.66385129  0.49408057  0.12873109     0.00770
C294        C  0.66773682  0.50853720  0.08568775    -0.07700
C295        C  0.69649664  0.52349815  0.07104511     0.62680
H296        H  0.64655888  0.52006873  0.02293372     0.13380
H297        H  0.63438692  0.46890473  0.17231607     0.13390
C298        C  0.58690571  0.45910414  0.12163486     0.62920
F299        F  0.69457068  0.53830041  0.02940977    -0.22250
F300        F  0.71712575  0.50005648  0.06775644    -0.19580
F301        F  0.70547099  0.04629955  0.10188069    -0.19260
F302        F  0.57877872  0.43871455  0.08715755    -0.19310
F303        F  0.56450100  0.47937125  0.13136940    -0.19630
F304        F  0.59145774  0.44041614  0.15947861    -0.22300
C305        C  0.86196604  0.24264116  0.45531487    -0.05140
C306        C  0.83469332  0.24228569  0.47648718     0.00780
C307        C  0.80927588  0.24184565  0.44926348    -0.07790
C308        C  0.81242450  0.24216708  0.40230131    -0.05160
C309        C  0.83962434  0.24259467  0.38102347     0.00770
C310        C  0.86502035  0.24274009  0.40809335    -0.07700
C311        C  0.89524695  0.24275442  0.38790214     0.62680
H312        H  0.88115948  0.24295598  0.47625063     0.13380
H313        H  0.79316363  0.24218214  0.38155653     0.13390
C314        C  0.77871164  0.24078366  0.46869873     0.62920
F315        F  0.91659900  0.24167727  0.42060673    -0.22250
F316        F  0.89984470  0.27034404  0.36289335    -0.19580
F317        F  0.89827756  0.21625622  0.36074232    -0.19260
F318        F  0.77385521  0.26823821  0.49313108    -0.19310
F319        F  0.77516534  0.21411977  0.49600094    -0.19630
F320        F  0.75762866  0.23894366  0.43556534    -0.22300
C321        C  0.93154857  0.22439309  0.77651499    -0.05140
C322        C  0.94364891  0.25436602  0.78747894     0.00780
C323        C  0.93362853  0.28220626  0.76593646    -0.07790
C324        C  0.91190180  0.27898027  0.73278156    -0.05160
C325        C  0.89985135  0.24890874  0.72194410     0.00770
C326        C  0.90954913  0.22117779  0.74416903    -0.07700
C327        C  0.89688972  0.18837225  0.73314909     0.62680
H328        H  0.93949244  0.20343865  0.79380844     0.13380
H329        H  0.90383304  0.29989826  0.71557432     0.13390
C330        C  0.94564334  0.31487780  0.77856398     0.62920
F331        F  0.90998253  0.16439642  0.75765995    -0.22250
F332        F  0.90076826  0.18213219  0.68791188    -0.19580
F333        F  0.86759961  0.18743341  0.74288528    -0.19260
F334        F  0.97518068  0.31611697  0.77092655    -0.19310
F335        F  0.94043830  0.32047269  0.82364505    -0.19630
F336        F  0.93298453  0.33897738  0.75373201    -0.22300
C337        C  0.23013348  0.21704309  0.45378586    -0.05140
C338        C  0.21706827  0.24242912  0.47627888     0.00780
C339        C  0.20384334  0.26705832  0.45108066    -0.07790
C340        C  0.20423570  0.26526034  0.40377411    -0.05160
C341        C  0.21817367  0.24040032  0.38144665     0.00770
C342        C  0.23102558  0.21557201  0.40663069    -0.07700
C343        C  0.24534157  0.18744340  0.38397413     0.62680
H344        H  0.24019380  0.19851250  0.47365458     0.13380
H345        H  0.19463422  0.28398421  0.38371475     0.13390
C346        C  0.19089153  0.29593870  0.47375747     0.62920
F347        F  0.25243674  0.16380604  0.41461661    -0.22250
F348        F  0.27057054  0.19757568  0.36286306    -0.19580
F349        F  0.22668897  0.17403947  0.35252494    -0.19260
F350        F  0.21129543  0.31027327  0.50164293    -0.19310
F351        F  0.16699698  0.28654217  0.49884496    -0.19630
F352        F  0.18207580  0.31859509  0.44277718    -0.22300
C353        C  0.13986533  0.24823769  0.79633574    -0.05140
C354        C  0.11951515  0.22292270  0.79284109     0.00780
C355        C  0.12081219  0.20213196  0.75539864    -0.07790
C356        C  0.14162059  0.20848816  0.72174807    -0.05160
C357        C  0.16211767  0.23360841  0.72562006     0.00770
C358        C  0.16131916  0.25390220  0.76365913    -0.07700
C359        C  0.18213890  0.28225603  0.76913610     0.62680
H360        H  0.13835540  0.26425607  0.82473553     0.13380
H361        H  0.14249929  0.19289506  0.69274553     0.13390
C362        C  0.10158816  0.17261187  0.74978128     0.62920
F363        F  0.17453065  0.30154063  0.80480998    -0.22250
F364        F  0.18211269  0.30088709  0.73054701    -0.19580
F365        F  0.20981765  0.27152332  0.77720692    -0.19260
F366        F  0.08235412  0.17759282  0.71485518    -0.19310
F367        F  0.08617194  0.16478683  0.78823824    -0.19630
F368        F  0.11853460  0.14671921  0.73942122    -0.22300
C369        C  0.36155423  0.49495011  0.45327675    -0.05140
C370        C  0.33486578  0.49561749  0.47608399     0.00780
C371        C  0.30878997  0.49592153  0.45039536    -0.07790
C372        C  0.31076197  0.49614244  0.40327578    -0.05160
C373        C  0.33738926  0.49587612  0.38034959     0.00770
C374        C  0.36341750  0.49498739  0.40589119    -0.07700
C375        C  0.39308455  0.49392960  0.38392063     0.62680
H376        H  0.38124056  0.49457890  0.47305105     0.13380
H377        H  0.29100472  0.49671169  0.38373131     0.13390
C378        C  0.27871885  0.49587772  0.47161867     0.62920
F379        F  0.41517592  0.49212503  0.41533792    -0.22250
F380        F  0.39785502  0.02133475  0.35858631    -0.19580
F381        F  0.39466438  0.46729236  0.35667781    -0.19260
F382        F  0.27518095  0.02355025  0.49617207    -0.19310
F383        F  0.27514074  0.46938694  0.49924294    -0.19630
F384        F  0.25680771  0.49463336  0.43975794    -0.22300
C385        C  0.31109041  0.11651744  0.62604944    -0.05140
C386        C  0.29362899  0.09000030  0.63871293     0.00780
C387        C  0.26451379  0.09519619  0.65202954    -0.07790
C388        C  0.25410243  0.12662715  0.65118511    -0.05160
C389        C  0.27140814  0.15285210  0.63737518     0.00770
C390        C  0.30053174  0.14780551  0.62465731    -0.07700
C391        C  0.32019813  0.17484980  0.60781574     0.62680
H392        H  0.33332036  0.11254121  0.61639444     0.13380
H393        H  0.23192743  0.13100018  0.66086594     0.13390
C394        C  0.24405905  0.06807273  0.66611790     0.62920
F395        F  0.34668792  0.16391701  0.59316393    -0.22250
F396        F  0.32546166  0.19639012  0.64214383    -0.19580
F397        F  0.30722846  0.19027060  0.57199309    -0.19260
F398        F  0.25483363  0.05295010  0.70390413    -0.19310
F399        F  0.24101592  0.04637642  0.63136201    -0.19630
F400        F  0.21670693  0.07884146  0.67663036    -0.22300
C401        C  0.26519970  0.39866859  0.63550819    -0.05140
C402        C  0.29550626  0.40103919  0.63908698     0.00780
C403        C  0.31161529  0.37255828  0.64345132    -0.07790
C404        C  0.29673023  0.34285963  0.64232913    -0.05160
C405        C  0.26651765  0.34039356  0.63665611     0.00770
C406        C  0.25029523  0.36898612  0.63396282    -0.07700
C407        C  0.21746034  0.36873694  0.62933669     0.62680
H408        H  0.25317142  0.42053324  0.63233208     0.13380
H409        H  0.30893313  0.32106673  0.64459206     0.13390
C410        C  0.34433691  0.37308211  0.64945773     0.62920
F411        F  0.20627116  0.39915296  0.63206321    -0.22250
F412        F  0.20506557  0.35057646  0.66349920    -0.19580
F413        F  0.20948808  0.35627547  0.58800827    -0.19260
F414        F  0.35206053  0.39339584  0.68425553    -0.19310
F415        F  0.35758083  0.38326284  0.61007691    -0.19630
F416        F  0.35477529  0.34310863  0.65980669    -0.22300
C417        C  0.40129254  0.49022792  0.76066036    -0.05140
C418        C  0.40412454  0.50852652  0.72126258     0.00780
C419        C  0.42768275  0.03068332  0.71721873    -0.07790
C420        C  0.44725198  0.03404923  0.75354662    -0.05160
C421        C  0.44424307  0.51576608  0.79307309     0.00770
C422        C  0.42119769  0.49274608  0.79625603    -0.07700
C423        C  0.41795023  0.46967850  0.83587299     0.62680
H424        H  0.38330975  0.47331187  0.76309747     0.13380
H425        H  0.46542798  0.05070613  0.75116338     0.13390
C426        C  0.43207074  0.05094218  0.67521084     0.62920
F427        F  0.39745679  0.44583224  0.82751672    -0.22250
F428        F  0.40917653  0.48589687  0.87372570    -0.19580
F429        F  0.44396360  0.45492179  0.84440015    -0.19260
F430        F  0.40727612  0.06790882  0.66616832    -0.19310
F431        F  0.43823014  0.03146124  0.63912333    -0.19630
F432        F  0.45483373  0.07268315  0.67996050    -0.22300
C433        C  0.69930441  0.49737340  0.39890710    -0.05140
C434        C  0.72503449  0.48790177  0.37800244     0.00780
C435        C  0.74861447  0.47793459  0.40510191    -0.07790
C436        C  0.74562044  0.47864736  0.45206887    -0.05160
C437        C  0.72020957  0.48888385  0.47321677     0.00770
C438        C  0.69639658  0.49824708  0.44612611    -0.07700
C439        C  0.66825657  0.00975563  0.46635471     0.62680
H440        H  0.68150147  0.00471757  0.37773994     0.13380
H441        H  0.76356576  0.47125014  0.47287636     0.13390
C442        C  0.77685067  0.46611621  0.38520618     0.62920
F443        F  0.64888365  0.01951084  0.43367857    -0.22250
F444        F  0.67382971  0.03552333  0.49428107    -0.19580
F445        F  0.65508343  0.48523732  0.49061191    -0.19260
F446        F  0.79170928  0.49121628  0.36469763    -0.19310
F447        F  0.77111376  0.44230743  0.35409548    -0.19630
F448        F  0.79490300  0.45348322  0.41773267    -0.22300
C449        C  0.79422226  0.39456825  0.63899616    -0.05140
C450        C  0.76389704  0.39603551  0.63690120     0.00780
C451        C  0.74720599  0.36712180  0.63837035    -0.07790
C452        C  0.76171517  0.33784084  0.63921572    -0.05160
C453        C  0.79206226  0.33633778  0.63856291     0.00770
C454        C  0.80874226  0.36527446  0.63978852    -0.07700
C455        C  0.84167547  0.36568827  0.64204741     0.62680
H456        H  0.80666249  0.41676418  0.63840835     0.13380
H457        H  0.74925624  0.31566031  0.63876258     0.13390
C458        C  0.71424958  0.36673284  0.63925506     0.62920
F459        F  0.85285534  0.39603012  0.65041233    -0.22250
F460        F  0.85294640  0.35561126  0.60152744    -0.19580
F461        F  0.85084505  0.34585023  0.67641197    -0.19260
F462        F  0.70363021  0.37640439  0.59794607    -0.19310
F463        F  0.70455403  0.38691621  0.67255534    -0.19630
F464        F  0.70292571  0.33648282  0.64815636    -0.22300
C465        C  0.79376325  0.08773274  0.63619816    -0.05140
C466        C  0.76339383  0.08532013  0.63823062     0.00780
C467        C  0.74725931  0.11377183  0.64264975    -0.07790
C468        C  0.76220104  0.14346578  0.64296552    -0.05160
C469        C  0.79250095  0.14599668  0.63875859     0.00770
C470        C  0.80872436  0.11741359  0.63619463    -0.07700
C471        C  0.84163481  0.11766519  0.63335506     0.62680
H472        H  0.80584898  0.06592959  0.63307925     0.13380
H473        H  0.74999351  0.16524158  0.64514694     0.13390
C474        C  0.71444421  0.11325305  0.64715604     0.62920
F475        F  0.85273189  0.08719530  0.63628150    -0.22250
F476        F  0.85328634  0.13532447  0.66843417    -0.19580
F477        F  0.85051069  0.13067849  0.59266804    -0.19260
F478        F  0.70608957  0.09255492  0.68139618    -0.19310
F479        F  0.70188068  0.10357578  0.60708225    -0.19630
F480        F  0.70386157  0.14312044  0.65732976    -0.22300
C481        C  0.60964062  0.45773665  0.75003629    -0.05140
C482        C  0.61586812  0.47055409  0.79272189     0.00780
C483        C  0.64247831  0.48788535  0.79902241    -0.07790
C484        C  0.66202170  0.49033497  0.76294972    -0.05160
C485        C  0.65562549  0.47807334  0.72019235     0.00770
C486        C  0.62872871  0.46177261  0.71325559    -0.07700
C487        C  0.61994493  0.44881129  0.66749467     0.62680
H488        H  0.58912629  0.44522407  0.74540731     0.13380
H489        H  0.68254616  0.50280940  0.76771389     0.13390
C490        C  0.65021864  0.00540983  0.84244800     0.62920
F491        F  0.59376343  0.43216216  0.66910273    -0.22250
F492        F  0.64074678  0.42820410  0.65197678    -0.19580
F493        F  0.61693855  0.97387294  0.63742589    -0.19260
F494        F  0.65692841  0.48370812  0.87585429    -0.19310
F495        F  0.62741618  0.02402211  0.85606437    -0.19630
F496        F  0.67408923  0.02562103  0.83713385    -0.22300
C497        C  0.59241790  0.47029896  0.82737171     0.03770
C498        C  0.56424810  0.48149618  0.81592671    -0.12380
C499        C  0.54695025  0.99389225  0.85025137     0.01270
C500        C  0.56071919  0.99878952  0.89166759    -0.10910
C501        C  0.58140680  0.97752061  0.90670179     0.03760
C502        C  0.59831916  0.46312768  0.87345993    -0.10330
H503        H  0.55669102  0.48201545  0.78145278     0.09350
H504        H  0.55101818  0.01395703  0.91577745     0.06880
H505        H  0.61627980  0.44829929  0.88293782     0.06730
O506        O  0.67299247  0.98374924  0.64329399    -0.57180
C507        C  0.72055361  0.98980501  0.52338419     0.75450
O508        O  0.76390205  0.52758929  0.64239318    -0.58330
C509        C  0.67839105  0.98238112  0.68504555     0.75420
C510        C  0.75077617  0.92810619  0.63221756     0.77820
Cd511      Cd  0.72454948  0.98953574  0.62008811     1.37470
O512        O  0.69795630  0.99107089  0.54742696    -0.57170
O513        O  0.72647061  0.93178149  0.61362995    -0.55980
C514        C  0.74982623  0.55272612  0.63422852     0.77780
O515        O  0.76362401  0.95346888  0.64543488    -0.58350
O516        O  0.74429223  0.98884005  0.54461313    -0.56810
O517        O  0.70480815  0.98539033  0.69597788    -0.56800
O518        O  0.72405986  0.54827823  0.62093551    -0.55970
O519        O  0.35860585  0.99294366  0.54882447    -0.57180
C520        C  0.38100242  0.00432433  0.68679006     0.75450
O521        O  0.29528366  0.53229821  0.65047640    -0.58330
C522        C  0.33538656  0.99598159  0.52634367     0.75420
C523        C  0.30910045  0.93364548  0.63634885     0.77820
Cd524      Cd  0.33408550  0.99696959  0.62318532     1.37470
O525        O  0.38560313  0.00632411  0.64484278    -0.57170
O526        O  0.33469736  0.93834798  0.62245324    -0.55980
C527        C  0.30682933  0.55778513  0.63503281     0.77780
O528        O  0.29517221  0.95855748  0.64602827    -0.58350
O529        O  0.35517691  0.99790953  0.69846307    -0.56810
O530        O  0.31272864  0.99954457  0.54927536    -0.56800
O531        O  0.33085438  0.55453422  0.61530887    -0.55970
C532        C  0.46745943  0.01769623  0.82781183     0.03770
C533        C  0.49645541  0.00949184  0.81625874    -0.12380
C534        C  0.51447546  0.99759900  0.85033564     0.01270
C535        C  0.50092195  0.99053717  0.89111763    -0.10910
C536        C  0.47855793  0.00907548  0.90692520     0.03760
C537        C  0.46043941  0.02237101  0.87410523    -0.10330
H538        H  0.50395503  0.01045144  0.78177313     0.09350
H539        H  0.51127187  0.97515490  0.91424773     0.06880
H540        H  0.44062366  0.03388803  0.88385379     0.06730
O541        O  0.17810428  0.73321861  0.64856352    -0.57180
C542        C  0.22002585  0.74328207  0.52579025     0.75450
O543        O  0.26712669  0.78274339  0.64373105    -0.58330
C544        C  0.18415183  0.73761865  0.68969954     0.75420
C545        C  0.25723760  0.68432327  0.63340463     0.77820
Cd546      Cd  0.22823218  0.74401061  0.62156518     1.37470
O547        O  0.19955993  0.75087678  0.55176778    -0.57170
O548        O  0.23062289  0.68590476  0.62365262    -0.55980
C549        C  0.25332853  0.80756975  0.63286651     0.77780
O550        O  0.27055229  0.71076481  0.63916703    -0.58350
O551        O  0.24363605  0.73586637  0.54432095    -0.56810
O552        O  0.21017664  0.74508476  0.69855167    -0.56800
O553        O  0.22812125  0.80255806  0.61761528    -0.55970
C554        C  0.09574903  0.72257807  0.82650938     0.03770
C555        C  0.06638064  0.72623454  0.81252263    -0.12380
C556        C  0.04660743  0.73909511  0.84301895     0.01270
C557        C  0.05813790  0.75150034  0.88266733    -0.10910
C558        C  0.08253267  0.73831328  0.90242857     0.03760
C559        C  0.10274276  0.72500587  0.87317769    -0.10330
H560        H  0.05952021  0.72058273  0.77859948     0.09350
H561        H  0.04505669  0.76656231  0.90239336     0.06880
H562        H  0.12386704  0.71835822  0.88558689     0.06730
C563        C  0.96646396  0.75468637  0.82226395     0.03770
C564        C  0.99562168  0.74873982  0.81008465    -0.12380
C565        C  0.01414797  0.73550766  0.84234977     0.01270
C566        C  0.00147973  0.72545594  0.88302591    -0.10910
C567        C  0.97733209  0.74099850  0.89989114     0.03760
C568        C  0.95844833  0.75434790  0.86833729    -0.10330
H569        H  0.00327519  0.75345215  0.77623186     0.09350
H570        H  0.01360980  0.71051376  0.90495912     0.06880
H571        H  0.93764432  0.76317065  0.87894112     0.06730
O572        O  0.85668668  0.73951344  0.55041761    -0.57180
C573        C  0.87661083  0.74701320  0.68814948     0.75450
O574        O  0.79171822  0.77884835  0.64740305    -0.58330
C575        C  0.83395866  0.74230327  0.52672436     0.75420
C576        C  0.80575209  0.67888039  0.63570490     0.77820
Cd577      Cd  0.83065556  0.74249820  0.62342468     1.37470
O578        O  0.88185162  0.74889731  0.64638197    -0.57170
O579        O  0.83118416  0.68398361  0.62143103    -0.55980
C580        C  0.80514136  0.80418422  0.63511105     0.77780
O581        O  0.79175098  0.70366421  0.64588829    -0.58350
O582        O  0.85044748  0.74294915  0.69972362    -0.56810
O583        O  0.81070861  0.74525689  0.54843186    -0.56800
O584        O  0.82990478  0.80038734  0.61823854    -0.55970
C585        C  0.59513368  0.99085140  0.02980223     0.03770
C586        C  0.60268797  0.98105702  0.98563486    -0.12380
C587        C  0.58083413  0.97025676  0.95625149     0.01270
C588        C  0.55315790  0.96499174  0.97505397    -0.10910
C589        C  0.54415935  0.98410175  0.01094601     0.03760
C590        C  0.56572163  0.99727888  0.03872328    -0.10330
H591        H  0.62493317  0.98201735  0.97416985     0.09350
H592        H  0.53744965  0.95114347  0.95648641     0.06880
H593        H  0.55975680  0.01193796  0.06698656     0.06730
O594        O  0.68066033  0.99041253  0.20525852    -0.57180
C595        C  0.72638986  0.98883226  0.32803949     0.75450
O596        O  0.77178550  0.95598795  0.21019131    -0.58330
C597        C  0.68683857  0.99287003  0.16377433     0.75420
C598        C  0.75532239  0.55360802  0.22179294     0.77910
Cd599      Cd  0.73117463  0.99047352  0.23165540     1.37470
O600        O  0.70391312  0.98606167  0.30359754    -0.57170
O601        O  0.73062690  0.54811549  0.23863222    -0.55980
C602        C  0.75871290  0.92986385  0.21922158     0.77780
O603        O  0.76911064  0.52931882  0.20893309    -0.58350
O604        O  0.75008016  0.99285659  0.30744545    -0.56810
O605        O  0.71349048  0.99349712  0.15422285    -0.56800
O606        O  0.73272603  0.93216469  0.23215795    -0.55970
O607        O  0.37859828  0.99515247  0.20520219    -0.57180
C608        C  0.33597110  0.99636591  0.33008481     0.75450
O609        O  0.29106862  0.53472106  0.20890030    -0.58330
C610        C  0.37167615  0.99352176  0.16390144     0.75420
C611        C  0.30155736  0.93599924  0.22653422     0.77820
Cd612      Cd  0.32891262  0.99733298  0.23371465     1.37470
O613        O  0.35792161  0.99836802  0.30457352    -0.57170
O614        O  0.32865964  0.93936633  0.23099363    -0.55980
C615        C  0.30490198  0.55981564  0.22069399     0.77780
O616        O  0.28686556  0.96120524  0.22321388    -0.58350
O617        O  0.31173755  0.99496375  0.31027382    -0.56810
O618        O  0.34487501  0.49438655  0.15536263    -0.56800
O619        O  0.32974957  0.55549938  0.23720104    -0.55970
C620        C  0.46249908  0.49040243  0.02843524     0.03770
C621        C  0.45566672  0.50254308  0.98489200    -0.12380
C622        C  0.47821126  0.51381786  0.95706884     0.01270
C623        C  0.50564242  0.51744425  0.97740087    -0.10910
C624        C  0.51375364  0.49571981  0.01092455     0.03760
C625        C  0.49154551  0.48174843  0.03682723    -0.10330
H626        H  0.43355406  0.50337837  0.97290881     0.09350
H627        H  0.52201149  0.53139650  0.96037131     0.06880
H628        H  0.49676461  0.46526384  0.06359610     0.06730
O629        O  0.17567735  0.74831649  0.21020983    -0.57180
C630        C  0.22020584  0.74199418  0.33197176     0.75450
O631        O  0.26534513  0.70963631  0.21450772    -0.58330
C632        C  0.18157106  0.75258043  0.16900773     0.75420
C633        C  0.25378896  0.80776535  0.22915460     0.77820
Cd634      Cd  0.22626877  0.74602279  0.23615976     1.37470
O635        O  0.19825207  0.74658383  0.30724140    -0.57170
O636        O  0.22968779  0.80308975  0.24844919    -0.55980
C637        C  0.25062045  0.68410444  0.22087280     0.77780
O638        O  0.26573091  0.78328955  0.21312316    -0.58350
O639        O  0.24429843  0.73958298  0.31229741    -0.56810
O640        O  0.20824802  0.75274008  0.15922984    -0.56800
O641        O  0.22459277  0.68774230  0.23260326    -0.55970
C642        C  0.09735717  0.76279132  0.02331442     0.03770
C643        C  0.10456187  0.75018337  0.98025099    -0.12380
C644        C  0.08265116  0.73730103  0.95298143     0.01270
C645        C  0.05590621  0.73130077  0.97353017    -0.10910
C646        C  0.04608552  0.75158842  0.00697099     0.03760
C647        C  0.06729151  0.76758293  0.03278842    -0.10330
H648        H  0.12641127  0.74887951  0.96818505     0.09350
H649        H  0.04065656  0.71570835  0.95748688     0.06880
H650        H  0.06063891  0.78181104  0.06117749     0.06730
C651        C  0.96676837  0.73463589  0.02713936     0.03770
C652        C  0.95954847  0.73337386  0.98065745    -0.12380
C653        C  0.97764055  0.74857184  0.94910778     0.01270
C654        C  0.00174766  0.76573014  0.96562833    -0.10910
C655        C  0.01408823  0.75751867  0.00720919     0.03760
C656        C  0.99539046  0.74414059  0.03964279    -0.10330
H657        H  0.93963189  0.72177292  0.96957343     0.09350
H658        H  0.01356330  0.78133289  0.94334454     0.06880
H659        H  0.00301424  0.74152513  0.07384080     0.06730
O660        O  0.88576942  0.73895122  0.20644520    -0.57180
C661        C  0.83948586  0.74237891  0.33074857     0.75450
O662        O  0.79496511  0.77696918  0.21180684    -0.58330
C663        C  0.87843946  0.73802252  0.16529073     0.75420
C664        C  0.80922252  0.67964976  0.22364687     0.77820
Cd665      Cd  0.83498143  0.74185642  0.23422742     1.37460
O666        O  0.86190266  0.74632619  0.30658102    -0.57170
O667        O  0.83423118  0.68416640  0.23993667    -0.55980
C668        C  0.80818177  0.80298681  0.22055387     0.77780
O669        O  0.79564787  0.70450419  0.21216593    -0.58350
O670        O  0.81594391  0.73830441  0.30955173    -0.56810
O671        O  0.85161643  0.73903386  0.15729868    -0.56800
O672        O  0.83408874  0.80037834  0.23394468    -0.55970
C673        C  0.91773465  0.74721978  0.05319922    -0.05140
C674        C  0.94339182  0.73053115  0.06143423     0.00780
C675        C  0.94662833  0.71442939  0.10326167    -0.07790
C676        C  0.92544822  0.71854201  0.13673507    -0.05160
C677        C  0.89998876  0.73555633  0.12845622     0.00770
C678        C  0.89560972  0.74938291  0.08530702    -0.07700
C679        C  0.86823864  0.76725794  0.07306482     0.62680
H680        H  0.91540320  0.75953440  0.02133550     0.13380
H681        H  0.92832214  0.70720387  0.16928191     0.13390
C682        C  0.97106081  0.69178279  0.11379220     0.62920
F683        F  0.87017231  0.78162871  0.03108428    -0.22250
F684        F  0.86331445  0.79101277  0.10423116    -0.19580
F685        F  0.84483103  0.74614526  0.07204649    -0.19260
F686        F  0.99007149  0.70615711  0.14384015    -0.19310
F687        F  0.98603750  0.68281164  0.07576881    -0.19630
F688        F  0.95983121  0.66412198  0.13330161    -0.22300
C689        C  0.16873602  0.76655122  0.09036596    -0.05140
C690        C  0.15908359  0.75752432  0.13355279     0.00780
C691        C  0.12882705  0.75406714  0.14109544    -0.07790
C692        C  0.10991523  0.75715611  0.10426540    -0.05160
C693        C  0.11944209  0.76575684  0.06062639     0.00770
C694        C  0.14961447  0.77235550  0.05445063    -0.07700
C695        C  0.16305082  0.78610923  0.01174201     0.62680
H696        H  0.19176927  0.77000412  0.08466269     0.13380
H697        H  0.08725493  0.75145494  0.10946079     0.13390
C698        C  0.11607312  0.74666304  0.18726173     0.62920
F699        F  0.18506844  0.80772860  0.02234724    -0.22250
F700        F  0.14312750  0.80240626  0.98605016    -0.19580
F701        F  0.17497005  0.76172625  0.98690194    -0.19260
F702        F  0.12377676  0.77073372  0.21697674    -0.19310
F703        F  0.12607215  0.71767325  0.20282040    -0.19630
F704        F  0.08609740  0.74469250  0.18642330    -0.22300
C705        C  0.26180989  0.59380615  0.21254488    -0.05140
C706        C  0.29206152  0.59218030  0.21696318     0.00780
C707        C  0.30868252  0.62112521  0.21906613    -0.07790
C708        C  0.29410734  0.65037990  0.21877006    -0.05160
C709        C  0.26375107  0.65194177  0.21673169     0.00770
C710        C  0.24722990  0.62306949  0.21247557    -0.07700
C711        C  0.21440009  0.62264394  0.20793611     0.62680
H712        H  0.24936642  0.57166692  0.21065164     0.13380
H713        H  0.30650573  0.67248593  0.22173355     0.13390
C714        C  0.34161110  0.62165944  0.22172127     0.62920
F715        F  0.20348690  0.59242958  0.19803076    -0.22250
F716        F  0.20622181  0.64292969  0.17347570    -0.19580
F717        F  0.20196843  0.63214655  0.24791268    -0.19260
F718        F  0.35290101  0.60341683  0.18744465    -0.19310
F719        F  0.35043107  0.60980022  0.26294033    -0.19630
F720        F  0.35313828  0.65230772  0.21730624    -0.22300
C721        C  0.29598468  0.88280204  0.19230253    -0.05140
C722        C  0.28805291  0.90398008  0.22630185     0.00780
C723        C  0.26961111  0.89349354  0.26145067    -0.07790
C724        C  0.25916941  0.86181011  0.26090689    -0.05160
C725        C  0.26687220  0.84035546  0.22681843     0.00770
C726        C  0.28552189  0.85099641  0.19159057    -0.07700
C727        C  0.29395000  0.82943727  0.15295341     0.62680
H728        H  0.31059177  0.89148667  0.16629164     0.13380
H729        H  0.24507179  0.85340960  0.28772850     0.13390
C730        C  0.26194013  0.91533354  0.30022058     0.62920
F731        F  0.30964276  0.84587565  0.12028158    -0.22250
F732        F  0.26930661  0.81677077  0.13275215    -0.19580
F733        F  0.31093226  0.80494898  0.16885293    -0.19260
F734        F  0.24659923  0.94109203  0.28425404    -0.19310
F735        F  0.28700786  0.92632006  0.32103242    -0.19630
F736        F  0.24508946  0.89973661  0.33230580    -0.22300
C737        C  0.42235393  0.00107844  0.13966612    -0.05140
C738        C  0.39413338  0.49129000  0.12811457     0.00780
C739        C  0.38859871  0.48000848  0.08376535    -0.07790
C740        C  0.41199358  0.47784781  0.05350892    -0.05160
C741        C  0.44014032  0.48850557  0.06475673     0.00770
C742        C  0.44526483  0.00115121  0.10866518    -0.07700
C743        C  0.47406403  0.01638118  0.12322523     0.62680
H744        H  0.42628414  0.00976464  0.17342257     0.13380
H745        H  0.40826737  0.46851699  0.02006568     0.13390
C746        C  0.35832006  0.47071100  0.06771536     0.62920
F747        F  0.47134860  0.03375140  0.16251056    -0.22250
F748        F  0.48430715  0.53732050  0.09053635    -0.19580
F749        F  0.49417509  0.99300896  0.13137973    -0.19260
F750        F  0.34081924  0.49720107  0.06849980    -0.19310
F751        F  0.34668812  0.94696223  0.09513524    -0.19630
F752        F  0.35832822  0.45930434  0.02404983    -0.22300
C753        C  0.75388288  0.87107265  0.21290807    -0.05140
C754        C  0.77246646  0.89800804  0.21562250     0.00780
C755        C  0.80284734  0.89343853  0.21780546    -0.07790
C756        C  0.81323729  0.86201471  0.21763432    -0.05160
C757        C  0.79461986  0.83500720  0.21627893     0.00770
C758        C  0.76421503  0.83962603  0.21356335    -0.07700
C759        C  0.74240552  0.81192479  0.21270751     0.62680
H760        H  0.73079030  0.87488038  0.21094374     0.13380
H761        H  0.83634977  0.85831291  0.21932571     0.13390
C762        C  0.82441266  0.92120022  0.22190334     0.62920
F763        F  0.71407785  0.82226466  0.21209620    -0.22250
F764        F  0.74570900  0.79310070  0.25069740    -0.19580
F765        F  0.74648489  0.79378859  0.17452424    -0.19260
F766        F  0.81798985  0.93924067  0.25938138    -0.19310
F767        F  0.82330066  0.94011688  0.18368474    -0.19630
F768        F  0.85260914  0.91093424  0.22658031    -0.22300
C769        C  0.79829368  0.58929661  0.21509358    -0.05140
C770        C  0.76803562  0.58643045  0.21877370     0.00780
C771        C  0.75126236  0.61459728  0.22048025    -0.07790
C772        C  0.76575051  0.64445155  0.22079678    -0.05160
C773        C  0.79607987  0.64717571  0.21959752     0.00770
C774        C  0.81274661  0.61913571  0.21541252    -0.07700
C775        C  0.84558258  0.62026475  0.21099267     0.62680
H776        H  0.81081984  0.56771423  0.21338704     0.13380
H777        H  0.75335992  0.66608094  0.22351405     0.13390
C778        C  0.71830683  0.61367254  0.22188750     0.62920
F779        F  0.85655561  0.59072735  0.19998766    -0.22250
F780        F  0.85799343  0.62956382  0.25135116    -0.19580
F781        F  0.85371919  0.64156961  0.17735648    -0.19260
F782        F  0.70892671  0.60151114  0.26281081    -0.19310
F783        F  0.70755921  0.59485394  0.18729066    -0.19630
F784        F  0.70677942  0.64381141  0.21687628    -0.22300
C785        C  0.64413376  0.00875152  0.05556610    -0.05140
C786        C  0.61747969  0.99372068  0.06591570     0.00780
C787        C  0.61398759  0.97842216  0.10859462    -0.07790
C788        C  0.63700236  0.97988353  0.13947255    -0.05160
C789        C  0.66385131  0.99408052  0.12873108     0.00770
C790        C  0.66773684  0.00853716  0.08568775    -0.07700
C791        C  0.69649666  0.02349812  0.07104511     0.62680
H792        H  0.64655889  0.02006871  0.02293373     0.13380
H793        H  0.63438695  0.96890468  0.17231605     0.13390
C794        C  0.58690572  0.95910412  0.12163485     0.62920
F795        F  0.69457069  0.03830039  0.02940978    -0.22250
F796        F  0.71712577  0.00005645  0.06775642    -0.19580
F797        F  0.70547096  0.54629959  0.10188069    -0.19260
F798        F  0.57877872  0.93871454  0.08715755    -0.19310
F799        F  0.56450102  0.97937125  0.13136941    -0.19630
F800        F  0.59145775  0.94041612  0.15947861    -0.22300
C801        C  0.86196599  0.74264109  0.45531470    -0.05140
C802        C  0.83469324  0.74228562  0.47648691     0.00780
C803        C  0.80927583  0.74184559  0.44926315    -0.07790
C804        C  0.81242450  0.74216701  0.40230101    -0.05160
C805        C  0.83962437  0.74259458  0.38102325     0.00770
C806        C  0.86502035  0.74274002  0.40809319    -0.07700
C807        C  0.89524697  0.74275438  0.38790207     0.62680
H808        H  0.88115940  0.74295591  0.47625052     0.13380
H809        H  0.79316365  0.74218208  0.38155617     0.13390
C810        C  0.77871156  0.74078362  0.46869831     0.62920
F811        F  0.91659899  0.74167729  0.42060672    -0.22250
F812        F  0.89984472  0.77034399  0.36289324    -0.19580
F813        F  0.89827765  0.71625616  0.36074230    -0.19260
F814        F  0.77385510  0.76823819  0.49313059    -0.19310
F815        F  0.77516523  0.71411975  0.49600057    -0.19630
F816        F  0.75762862  0.73894358  0.43556486    -0.22300
C817        C  0.93154778  0.72439568  0.77651616    -0.05140
C818        C  0.94364745  0.75436911  0.78747928     0.00780
C819        C  0.93362703  0.78220869  0.76593549    -0.07790
C820        C  0.91190061  0.77898177  0.73278039    -0.05160
C821        C  0.89985064  0.74890985  0.72194381     0.00770
C822        C  0.90954868  0.72117940  0.74416976    -0.07700
C823        C  0.89688992  0.68837345  0.73315039     0.62680
H824        H  0.93949189  0.70344171  0.79381044     0.13380
H825        H  0.90383172  0.79989934  0.71557228     0.13390
C826        C  0.94564158  0.81488054  0.77856202     0.62920
F827        F  0.90998303  0.66439819  0.75766198    -0.22250
F828        F  0.90076884  0.68213294  0.68791337    -0.19580
F829        F  0.86759976  0.68743407  0.74288614    -0.19260
F830        F  0.97517894  0.81611987  0.77092469    -0.19310
F831        F  0.94043645  0.82047607  0.82364291    -0.19630
F832        F  0.93298261  0.83897957  0.75372925    -0.22300
C833        C  0.23013329  0.71704298  0.45378641    -0.05140
C834        C  0.21706803  0.74242899  0.47627942     0.00780
C835        C  0.20384318  0.76705823  0.45108116    -0.07790
C836        C  0.20423562  0.76526028  0.40377461    -0.05160
C837        C  0.21817363  0.74040027  0.38144718     0.00770
C838        C  0.23102550  0.71557195  0.40663124    -0.07700
C839        C  0.24534156  0.68744338  0.38397467     0.62680
H840        H  0.24019357  0.69851238  0.47365515     0.13380
H841        H  0.19463418  0.78398416  0.38371522     0.13390
C842        C  0.19089138  0.79593862  0.47375793     0.62920
F843        F  0.25243674  0.66380602  0.41461715    -0.22250
F844        F  0.27057053  0.69757574  0.36286367    -0.19580
F845        F  0.22668902  0.67403943  0.35252543    -0.19260
F846        F  0.21129526  0.81027315  0.50164347    -0.19310
F847        F  0.16699677  0.78654213  0.49884532    -0.19630
F848        F  0.18207574  0.81859505  0.44277762    -0.22300
C849        C  0.13986502  0.74824201  0.79633622    -0.05140
C850        C  0.11951410  0.72292775  0.79284230     0.00780
C851        C  0.12081074  0.70213591  0.75540114    -0.07790
C852        C  0.14161946  0.70849052  0.72175053    -0.05160
C853        C  0.16211724  0.73361016  0.72562156     0.00770
C854        C  0.16131923  0.75390481  0.76365977    -0.07700
C855        C  0.18213989  0.78225787  0.76913590     0.62680
H856        H  0.13835541  0.76426112  0.82473522     0.13380
H857        H  0.14249785  0.69289666  0.69274878     0.13390
C858        C  0.10158612  0.67261610  0.74978540     0.62920
F859        F  0.17453232  0.80154338  0.80480916    -0.22250
F860        F  0.18211426  0.80088828  0.73054619    -0.19580
F861        F  0.20981824  0.77152410  0.77720709    -0.19260
F862        F  0.08235254  0.67759628  0.71485845    -0.19310
F863        F  0.08616933  0.66479276  0.78824248    -0.19630
F864        F  0.11853216  0.64672267  0.73942761    -0.22300
C865        C  0.36155423  0.99495007  0.45327677    -0.05140
C866        C  0.33486577  0.99561743  0.47608400     0.00780
C867        C  0.30878997  0.99592147  0.45039537    -0.07790
C868        C  0.31076197  0.99614240  0.40327579    -0.05160
C869        C  0.33738925  0.99587611  0.38034961     0.00770
C870        C  0.36341750  0.99498738  0.40589120    -0.07700
C871        C  0.39308455  0.99392963  0.38392065     0.62680
H872        H  0.38124055  0.99457887  0.47305108     0.13380
H873        H  0.29100472  0.99671166  0.38373132     0.13390
C874        C  0.27871884  0.99587764  0.47161867     0.62920
F875        F  0.41517592  0.99212508  0.41533794    -0.22250
F876        F  0.39785504  0.52133471  0.35858628    -0.19580
F877        F  0.39466441  0.96729240  0.35667783    -0.19260
F878        F  0.27518097  0.52355033  0.49617206    -0.19310
F879        F  0.27514075  0.96938686  0.49924295    -0.19630
F880        F  0.25680770  0.99463326  0.43975795    -0.22300
C881        C  0.31109020  0.61651753  0.62604953    -0.05140
C882        C  0.29362886  0.59000034  0.63871300     0.00780
C883        C  0.26451365  0.59519613  0.65202967    -0.07790
C884        C  0.25410222  0.62662706  0.65118533    -0.05160
C885        C  0.27140785  0.65285207  0.63737543     0.00770
C886        C  0.30053146  0.64780557  0.62465748    -0.07700
C887        C  0.32019777  0.67484993  0.60781591     0.62680
H888        H  0.33332015  0.61254137  0.61639447     0.13380
H889        H  0.23192722  0.63100001  0.66086622     0.13390
C890        C  0.24405898  0.56807260  0.66611799     0.62920
F891        F  0.34668757  0.66391722  0.59316399    -0.22250
F892        F  0.32546130  0.69639023  0.64214404    -0.19580
F893        F  0.30722803  0.69027074  0.57199334    -0.19260
F894        F  0.25483361  0.55294997  0.70390419    -0.19310
F895        F  0.24101589  0.54637632  0.63136206    -0.19630
F896        F  0.21670684  0.57884125  0.67663049    -0.22300
C897        C  0.26519958  0.89866849  0.63550813    -0.05140
C898        C  0.29550614  0.90103905  0.63908696     0.00780
C899        C  0.31161512  0.87255812  0.64345133    -0.07790
C900        C  0.29673002  0.84285948  0.64232920    -0.05160
C901        C  0.26651744  0.84039346  0.63665619     0.00770
C902        C  0.25029507  0.86898605  0.63396279    -0.07700
C903        C  0.21746019  0.86873692  0.62933660     0.62680
H904        H  0.25317133  0.92053316  0.63233198     0.13380
H905        H  0.30893289  0.82106656  0.64459219     0.13390
C906        C  0.34433675  0.87308190  0.64945772     0.62920
F907        F  0.20627104  0.89915297  0.63206299    -0.22250
F908        F  0.20506536  0.85057653  0.66349916    -0.19580
F909        F  0.20948793  0.85627540  0.58800821    -0.19260
F910        F  0.35206041  0.89339562  0.68425551    -0.19310
F911        F  0.35758067  0.88326263  0.61007689    -0.19630
F912        F  0.35477510  0.84310841  0.65980666    -0.22300
C913        C  0.40129253  0.99022786  0.76066039    -0.05140
C914        C  0.40412452  0.00852644  0.72126259     0.00780
C915        C  0.42768278  0.53068338  0.71721873    -0.07790
C916        C  0.44725201  0.53404927  0.75354664    -0.05160
C917        C  0.44424306  0.01576605  0.79307310     0.00770
C918        C  0.42119768  0.99274604  0.79625606    -0.07700
C919        C  0.41795023  0.96967848  0.83587304     0.62680
H920        H  0.38330974  0.97331181  0.76309753     0.13380
H921        H  0.46542801  0.55070617  0.75116342     0.13390
C922        C  0.43207079  0.55094226  0.67521085     0.62920
F923        F  0.39745679  0.94583222  0.82751680    -0.22250
F924        F  0.40917653  0.98589686  0.87372574    -0.19580
F925        F  0.44396360  0.95492178  0.84440021    -0.19260
F926        F  0.40727618  0.56790891  0.66616834    -0.19310
F927        F  0.43823019  0.53146132  0.63912333    -0.19630
F928        F  0.45483379  0.57268321  0.67996054    -0.22300
C929        C  0.69930442  0.99737338  0.39890707    -0.05140
C930        C  0.72503450  0.98790173  0.37800242     0.00780
C931        C  0.74861447  0.97793454  0.40510190    -0.07790
C932        C  0.74562043  0.97864734  0.45206887    -0.05160
C933        C  0.72020957  0.98888386  0.47321675     0.00770
C934        C  0.69639659  0.99824709  0.44612608    -0.07700
C935        C  0.66825656  0.50975560  0.46635477     0.62680
H936        H  0.68150145  0.50471759  0.37773999     0.13380
H937        H  0.76356575  0.97125012  0.47287636     0.13390
C938        C  0.77685066  0.96611613  0.38520620     0.62920
F939        F  0.64888363  0.51951081  0.43367864    -0.22250
F940        F  0.67382968  0.53552328  0.49428116    -0.19580
F941        F  0.65508343  0.98523738  0.49061188    -0.19260
F942        F  0.79170930  0.99121618  0.36469764    -0.19310
F943        F  0.77111374  0.94230735  0.35409550    -0.19630
F944        F  0.79490298  0.95348313  0.41773270    -0.22300
C945        C  0.79422217  0.89456824  0.63899612    -0.05140
C946        C  0.76389695  0.89603555  0.63690116     0.00780
C947        C  0.74720587  0.86712187  0.63837026    -0.07790
C948        C  0.76171500  0.83784088  0.63921554    -0.05160
C949        C  0.79206208  0.83633777  0.63856270     0.00770
C950        C  0.80874213  0.86527442  0.63978842    -0.07700
C951        C  0.84167533  0.86568817  0.64204735     0.62680
H952        H  0.80666243  0.91676415  0.63840837     0.13380
H953        H  0.74925603  0.81566038  0.63876233     0.13390
C954        C  0.71424945  0.86673296  0.63925501     0.62920
F955        F  0.85285524  0.89602998  0.65041237    -0.22250
F956        F  0.85294627  0.85561119  0.60152737    -0.19580
F957        F  0.85084487  0.84585007  0.67641187    -0.19260
F958        F  0.70363007  0.87640454  0.59794603    -0.19310
F959        F  0.70455394  0.88691633  0.67255532    -0.19630
F960        F  0.70292555  0.83648295  0.64815631    -0.22300
C961        C  0.79376321  0.58773270  0.63619823    -0.05140
C962        C  0.76339378  0.58532005  0.63823065     0.00780
C963        C  0.74725923  0.61377173  0.64264971    -0.07790
C964        C  0.76220093  0.64346570  0.64296540    -0.05160
C965        C  0.79250083  0.64599663  0.63875847     0.00770
C966        C  0.80872429  0.61741357  0.63619464    -0.07700
C967        C  0.84163474  0.61766522  0.63335510     0.62680
H968        H  0.80584897  0.56592956  0.63307939     0.13380
H969        H  0.74999336  0.66524148  0.64514674     0.13390
C970        C  0.71444414  0.61325292  0.64715602     0.62920
F971        F  0.85273186  0.58719535  0.63628169    -0.22250
F972        F  0.85328624  0.63532460  0.66843414    -0.19580
F973        F  0.85051062  0.63067845  0.59266804    -0.19260
F974        F  0.70608952  0.59255479  0.68139618    -0.19310
F975        F  0.70188061  0.60357563  0.60708224    -0.19630
F976        F  0.70386147  0.64312030  0.65732973    -0.22300
C977        C  0.60964063  0.95773666  0.75003627    -0.05140
C978        C  0.61586813  0.97055410  0.79272188     0.00780
C979        C  0.64247831  0.98788535  0.79902241    -0.07790
C980        C  0.66202170  0.99033498  0.76294972    -0.05160
C981        C  0.65562549  0.97807337  0.72019234     0.00770
C982        C  0.62872871  0.96177264  0.71325557    -0.07700
C983        C  0.61994494  0.94881132  0.66749465     0.62680
H984        H  0.58912630  0.94522409  0.74540729     0.13380
H985        H  0.68254616  0.00280942  0.76771389     0.13390
C986        C  0.65021863  0.50540984  0.84244799     0.62920
F987        F  0.59376344  0.93216219  0.66910271    -0.22250
F988        F  0.64074679  0.92820415  0.65197675    -0.19580
F989        F  0.61693856  0.47387290  0.63742590    -0.19260
F990        F  0.65692842  0.98370809  0.87585428    -0.19310
F991        F  0.62741616  0.52402212  0.85606435    -0.19630
F992        F  0.67408922  0.52562105  0.83713383    -0.22300
loop_ 
_geom_bond_atom_site_label_1 
_geom_bond_atom_site_label_2 
_geom_bond_distance 
_geom_bond_site_symmetry_2 
_ccdc_geom_bond_type 
C1            C2   1.431       .  A
C1            C6   1.428       .  A
C1          C978   1.495       .  S
C2          C499   1.403       .  A
C2            H7   1.082       .  S
C3            C4   1.399       .  A
C3          C498   1.403       .  A
C3           C38   1.510       .  S
C4            C5   1.389       .  A
C4            H8   1.064       .  S
C5          C502   1.405       .  A
C5           C91   1.502       .  S
C6          C501   1.405       .  A
C6            H9   1.081       .  S
O10          C13   1.267       .  A
O10         Cd15   2.486       .  S
C11         C437   1.492       .  S
C11          O20   1.265       .  A
C11          O16   1.267       .  A
O12          C18   1.269       .  A
O12        Cd511   2.485   1_545  S
C13         C485   1.491       .  S
C13          O21   1.266       .  A
C14         C450   1.488       .  S
C14          O19   1.269       .  A
C14          O17   1.262       .  A
Cd15         O21   2.438       .  S
Cd15         O20   2.423       .  S
Cd15         O16   2.484       .  S
Cd15         O19   2.487       .  S
Cd15         O17   2.428       .  S
Cd15        O508   2.485       .  S
Cd15        O518   2.458       .  S
C18         C466   1.495       .  S
C18          O22   1.264       .  A
O22        Cd511   2.458   1_545  S
O23          C26   1.270       .  A
O23         Cd28   2.492       .  S
C24         C418   1.487       .  S
C24          O33   1.266       .  A
C24          O29   1.267       .  A
O25          C31   1.267       .  A
O25        Cd524   2.483   1_545  S
C26         C370   1.494       .  S
C26          O34   1.261       .  A
C27         C402   1.493       .  S
C27          O32   1.269       .  A
C27          O30   1.264       .  A
Cd28         O34   2.409       .  S
Cd28         O33   2.439       .  S
Cd28         O29   2.488       .  S
Cd28         O32   2.481       .  S
Cd28         O30   2.453       .  S
Cd28        O521   2.483       .  S
Cd28        O531   2.426       .  S
C31         C386   1.494       .  S
C31          O35   1.265       .  A
O35        Cd524   2.426   1_545  S
C36          C37   1.431       .  A
C36          C41   1.429       .  A
C36         C421   1.489       .  S
C37          C38   1.405       .  A
C37          H42   1.082       .  S
C38          C39   1.393       .  A
C39          C40   1.386       .  A
C39          H43   1.059       .  S
C40          C41   1.404       .  A
C40         C622   1.504       .  S
C41          H44   1.082       .  S
O45          C48   1.267       .  A
O45         Cd50   2.483       .  S
C46         C338   1.478       .  S
C46          O55   1.264       .  A
C46          O51   1.267       .  A
O47          C53   1.269       .  A
O47         Cd50   2.486       .  S
C48         C357   1.482       .  S
C48          O56   1.263       .  A
C49         C389   1.485       .  S
C49          O54   1.268       .  A
C49          O52   1.265       .  A
Cd50         O57   2.451       .  S
Cd50         O56   2.437       .  S
Cd50         O55   2.431       .  S
Cd50         O51   2.478       .  S
Cd50         O54   2.473       .  S
Cd50         O52   2.436       .  S
C53         C405   1.496       .  S
C53          O57   1.263       .  A
C58          C59   1.428       .  A
C58          C63   1.427       .  A
C58         C354   1.486       .  S
C59          C60   1.403       .  A
C59          H64   1.082       .  S
C60          C61   1.391       .  A
C60          C69   1.503       .  S
C61          C62   1.391       .  A
C61          H65   1.060       .  S
C62          C63   1.401       .  A
C62         C148   1.503       .  S
C63          H66   1.083       .  S
C67          C68   1.421       .  A
C67          C72   1.419       .  A
C67         C322   1.475       .  S
C68          C69   1.403   1_655  A
C68          H73   1.083   1_655  S
C69          C70   1.403       .  A
C70          C71   1.396   1_455  A
C70          H74   1.066       .  S
C71          C72   1.401       .  A
C71         C157   1.498       .  S
C72          H75   1.083       .  S
O76          C79   1.270       .  A
O76         Cd81   2.486       .  S
C77         C325   1.470       .  S
C77          O86   1.264       .  A
C77          O82   1.267       .  A
O78          C84   1.270       .  A
O78         Cd81   2.483       .  S
C79         C306   1.493       .  S
C79          O87   1.261       .  A
C80         C469   1.497       .  S
C80          O85   1.270       .  A
C80          O83   1.263       .  A
Cd81         O88   2.427       .  S
Cd81         O87   2.413       .  S
Cd81         O86   2.444       .  S
Cd81         O82   2.469       .  S
Cd81         O85   2.489       .  S
Cd81         O83   2.449       .  S
C84         C453   1.489       .  S
C84          O88   1.262       .  A
C89          C90   1.423   1_554  A
C89          C94   1.415       .  A
C89         C290   1.491       .  S
C90          C91   1.403       .  A
C90          H95   1.082       .  S
C91          C92   1.408       .  A
C92          C93   1.404   1_556  A
C92          H96   1.073       .  S
C93          C94   1.399       .  A
C93         C624   1.494       .  S
C94          H97   1.081       .  S
O98         C101   1.269       .  A
O98        Cd103   2.460       .  S
C99         C434   1.486       .  S
C99         O108   1.262       .  A
C99         O104   1.270       .  A
O100        C106   1.266       .  A
O100       Cd103   2.473       .  S
C101        C293   1.487       .  S
C101        O109   1.263       .  A
C102        C274   1.486       .  S
C102        O107   1.270       .  A
C102        O105   1.262       .  A
Cd103       O110   2.441       .  S
Cd103       O109   2.444       .  S
Cd103       O108   2.416       .  S
Cd103       O104   2.487       .  S
Cd103       O603   2.460       .  S
Cd103       O601   2.422       .  S
O105       Cd599   2.422   1_545  S
C106        C258   1.491       .  S
C106        O110   1.266       .  A
O107       Cd599   2.460   1_545  S
O111        C114   1.270       .  A
O111       Cd116   2.450       .  S
C112        C373   1.495       .  S
C112        O121   1.264       .  A
C112        O117   1.268       .  A
O113        C119   1.269       .  A
O113       Cd612   2.476   1_545  S
C114        C738   1.491       .  S
C114        O618   1.264       .  A
C115        C226   1.467       .  S
C115        O120   1.268       .  A
C115        O118   1.263       .  A
Cd116       O121   2.411       .  S
Cd116       O117   2.494       .  S
Cd116       O120   2.458       .  S
Cd116       O118   2.426       .  S
Cd116       O609   2.476       .  S
Cd116       O619   2.435       .  S
Cd116       O618   2.447       .  S
C119        C210   1.492       .  S
C119        O123   1.263       .  A
O122        C610   1.264       .  A
O122       Cd612   2.447       .  S
O123       Cd612   2.435   1_545  S
C124        C125   1.425   1_564  A
C124        C129   1.417       .  A
C124        C245   1.495       .  S
C125        C126   1.403       .  A
C125        H130   1.082       .  S
C126        C127   1.408       .  A
C126        C536   1.504       .  S
C127        C128   1.401   1_546  A
C127        H131   1.072       .  S
C128        C129   1.400       .  A
C128        C589   1.494       .  S
C129        H132   1.080       .  S
O133        C136   1.266       .  A
O133       Cd138   2.462       .  S
C134        C341   1.475       .  S
C134        O143   1.263       .  A
C134        O139   1.268       .  A
O135        C141   1.269       .  A
O135       Cd138   2.470       .  S
C136        C194   1.495       .  S
C136        O144   1.266       .  A
C137        C229   1.482       .  S
C137        O142   1.267       .  A
C137        O140   1.264       .  A
Cd138       O145   2.440       .  S
Cd138       O144   2.449       .  S
Cd138       O143   2.426       .  S
Cd138       O139   2.479       .  S
Cd138       O142   2.471       .  S
Cd138       O140   2.419       .  S
C141        C213   1.492       .  S
C141        O145   1.264       .  A
C146        C147   1.428   1_554  A
C146        C151   1.434       .  A
C146        C197   1.509       .  S
C147        C148   1.397       .  A
C147        H152   1.073       .  S
C148        C149   1.396       .  A
C149        C150   1.392   1_556  A
C149        H153   1.064       .  S
C150        C151   1.405       .  A
C150        C159   1.502       .  S
C151        H154   1.083       .  S
C155        C156   1.422   1_554  A
C155        C160   1.422       .  A
C155        C178   1.492       .  S
C156        C157   1.399       .  A
C156        H161   1.083       .  S
C157        C158   1.403   1_655  A
C158        C159   1.404   1_556  A
C158        H162   1.070       .  S
C159        C160   1.402   1_455  A
C160        H163   1.081   1_655  S
O164        C167   1.269       .  A
O164       Cd169   2.492       .  S
C165        C309   1.494       .  S
C165        O174   1.265       .  A
C165        O170   1.268       .  A
O166        C172   1.266       .  A
O166       Cd169   2.470       .  S
C167        C181   1.485       .  S
C167        O175   1.262       .  A
C168        C277   1.483       .  S
C168        O173   1.269       .  A
C168        O171   1.263       .  A
Cd169       O176   2.449       .  S
Cd169       O175   2.417       .  S
Cd169       O174   2.409       .  S
Cd169       O170   2.488       .  S
Cd169       O173   2.464       .  S
Cd169       O171   2.418       .  S
C172        C261   1.494       .  S
C172        O176   1.267       .  A
C177        C178   1.407       .  A
C177        C182   1.403       .  A
C177        H184   1.082       .  S
C178        C179   1.420       .  A
C179        C180   1.409       .  A
C179        C186   1.518       .  S
C180        C181   1.406       .  A
C180        H185   1.084       .  S
C181        C182   1.420       .  A
C182        C183   1.523       .  S
C183        F187   1.385       .  S
C183        F188   1.384       .  S
C183        F189   1.383       .  S
C186        F190   1.383       .  S
C186        F191   1.382       .  S
C186        F192   1.384       .  S
C193        C194   1.407       .  A
C193        C198   1.407       .  A
C193        H200   1.084       .  S
C194        C195   1.420       .  A
C195        C196   1.406       .  A
C195        C202   1.522       .  S
C196        C197   1.413       .  A
C196        H201   1.080       .  S
C197        C198   1.427       .  A
C198        C199   1.519       .  S
C199        F203   1.385       .  S
C199        F204   1.382   1_554  S
C199        F205   1.384   1_554  S
C202        F206   1.384       .  S
C202        F207   1.383       .  S
C202        F208   1.385       .  S
C209        C210   1.405       .  A
C209        C214   1.408       .  A
C209        H216   1.082       .  S
C210        C211   1.423       .  A
C211        C212   1.407       .  A
C211        C218   1.522       .  S
C212        C213   1.405       .  A
C212        H217   1.082       .  S
C213        C214   1.422       .  A
C214        C215   1.521       .  S
C215        F219   1.385       .  S
C215        F220   1.384       .  S
C215        F221   1.383       .  S
C218        F222   1.384       .  S
C218        F223   1.383       .  S
C218        F224   1.385       .  S
C225        C226   1.400       .  A
C225        C230   1.407       .  A
C225        H232   1.083       .  S
C226        C227   1.412       .  A
C227        C228   1.402       .  A
C227        C234   1.520       .  S
C228        C229   1.407       .  A
C228        H233   1.083       .  S
C229        C230   1.421       .  A
C230        C231   1.519       .  S
C231        F235   1.385       .  S
C231        F236   1.384       .  S
C231        F237   1.383       .  S
C234        F238   1.382       .  S
C234        F239   1.384       .  S
C234        F240   1.385       .  S
C241        C246   1.403       .  A
C241        C738   1.401       .  A
C241        H248   1.082       .  S
C242        C243   1.423       .  A
C242        C737   1.401   1_565  A
C242        C610   1.491       .  S
C243        C244   1.411       .  A
C243        C250   1.521       .  S
C244        C245   1.406       .  A
C244        H249   1.082       .  S
C245        C742   1.428   1_565  A
C246        C741   1.428       .  A
C246        C247   1.527       .  S
C247        F251   1.385       .  S
C247        F253   1.381       .  S
C247        F748   1.383       .  S
C250        F254   1.384       .  S
C250        F256   1.385       .  S
C250        F751   1.383       .  S
F252        C743   1.383       .  S
F255        C746   1.383       .  S
C257        C258   1.406       .  A
C257        C262   1.408       .  A
C257        H264   1.082       .  S
C258        C259   1.420       .  A
C259        C260   1.408       .  A
C259        C266   1.521       .  S
C260        C261   1.407       .  A
C260        H265   1.082       .  S
C261        C262   1.423       .  A
C262        C263   1.521       .  S
C263        F267   1.385       .  S
C263        F268   1.383       .  S
C263        F269   1.383       .  S
C266        F270   1.384       .  S
C266        F271   1.383       .  S
C266        F272   1.385       .  S
C273        C274   1.404       .  A
C273        C278   1.404       .  A
C273        H280   1.083       .  S
C274        C275   1.423       .  A
C275        C276   1.406       .  A
C275        C282   1.522       .  S
C276        C277   1.403       .  A
C276        H281   1.083       .  S
C277        C278   1.421       .  A
C278        C279   1.522       .  S
C279        F283   1.385       .  S
C279        F284   1.383       .  S
C279        F285   1.384       .  S
C282        F286   1.383       .  S
C282        F287   1.384       .  S
C282        F288   1.385       .  S
C289        C290   1.405       .  A
C289        C294   1.410       .  A
C289        H296   1.082       .  S
C290        C291   1.426       .  A
C291        C292   1.404       .  A
C291        C298   1.525       .  S
C292        C293   1.401       .  A
C292        H297   1.083       .  S
C293        C294   1.423       .  A
C294        C295   1.520       .  S
C295        F299   1.385       .  S
C295        F300   1.383       .  S
C295        F797   1.383       .  S
C298        F302   1.383       .  S
C298        F303   1.381       .  S
C298        F304   1.385       .  S
F301        C791   1.383       .  S
C305        C306   1.408       .  A
C305        C310   1.411       .  A
C305        H312   1.082       .  S
C306        C307   1.424       .  A
C307        C308   1.403       .  A
C307        C314   1.525       .  S
C308        C309   1.406       .  A
C308        H313   1.081       .  S
C309        C310   1.421       .  A
C310        C311   1.520       .  S
C311        F315   1.385       .  S
C311        F316   1.383       .  S
C311        F317   1.383       .  S
C314        F318   1.383       .  S
C314        F319   1.384       .  S
C314        F320   1.385       .  S
C321        C322   1.403       .  A
C321        C326   1.403       .  A
C321        H328   1.084       .  S
C322        C323   1.412       .  A
C323        C324   1.410       .  A
C323        C330   1.514       .  S
C324        C325   1.405       .  A
C324        H329   1.083       .  S
C325        C326   1.412       .  A
C326        C327   1.518       .  S
C327        F331   1.384       .  S
C327        F332   1.383       .  S
C327        F333   1.383       .  S
C330        F334   1.383       .  S
C330        F335   1.383       .  S
C330        F336   1.384       .  S
C337        C338   1.403       .  A
C337        C342   1.404       .  A
C337        H344   1.083       .  S
C338        C339   1.418       .  A
C339        C340   1.408       .  A
C339        C346   1.519       .  S
C340        C341   1.403       .  A
C340        H345   1.083       .  S
C341        C342   1.416       .  A
C342        C343   1.520       .  S
C343        F347   1.385       .  S
C343        F348   1.382       .  S
C343        F349   1.384       .  S
C346        F350   1.384       .  S
C346        F351   1.382       .  S
C346        F352   1.385       .  S
C353        C354   1.407       .  A
C353        C358   1.404       .  A
C353        H360   1.083       .  S
C354        C355   1.417       .  A
C355        C356   1.409       .  A
C355        C362   1.517       .  S
C356        C357   1.406       .  A
C356        H361   1.084       .  S
C357        C358   1.418       .  A
C358        C359   1.522       .  S
C359        F363   1.385       .  S
C359        F364   1.384       .  S
C359        F365   1.383       .  S
C362        F366   1.383       .  S
C362        F367   1.382       .  S
C362        F368   1.384       .  S
C369        C370   1.408       .  A
C369        C374   1.411       .  A
C369        H376   1.082       .  S
C370        C371   1.425       .  A
C371        C372   1.403       .  A
C371        C378   1.525       .  S
C372        C373   1.406       .  A
C372        H377   1.081       .  S
C373        C374   1.422       .  A
C374        C375   1.519       .  S
C375        F379   1.385       .  S
C375        F381   1.383       .  S
C375        F876   1.383       .  S
C378        F383   1.384       .  S
C378        F384   1.385       .  S
C378        F878   1.383       .  S
F380        C871   1.383   1_545  S
F382        C874   1.383   1_545  S
C385        C386   1.409       .  A
C385        C390   1.406       .  A
C385        H392   1.082       .  S
C386        C387   1.422       .  A
C387        C388   1.408       .  A
C387        C394   1.520       .  S
C388        C389   1.405       .  A
C388        H393   1.083       .  S
C389        C390   1.417       .  A
C390        C391   1.521       .  S
C391        F395   1.385       .  S
C391        F396   1.382       .  S
C391        F397   1.384       .  S
C394        F398   1.383       .  S
C394        F399   1.383       .  S
C394        F400   1.385       .  S
C401        C402   1.405       .  A
C401        C406   1.409       .  A
C401        H408   1.082       .  S
C402        C403   1.421       .  A
C403        C404   1.409       .  A
C403        C410   1.521       .  S
C404        C405   1.407       .  A
C404        H409   1.082       .  S
C405        C406   1.425       .  A
C406        C407   1.522       .  S
C407        F411   1.385       .  S
C407        F412   1.383       .  S
C407        F413   1.383       .  S
C410        F414   1.384       .  S
C410        F415   1.383       .  S
C410        F416   1.385       .  S
C417        C418   1.401       .  A
C417        C422   1.403       .  A
C417        H424   1.083       .  S
C418        C915   1.421       .  A
C419        C420   1.413       .  A
C419        C914   1.421       .  A
C419        C426   1.517       .  S
C420        C917   1.404       .  A
C420        H425   1.083       .  S
C421        C422   1.425       .  A
C421        C916   1.404       .  A
C422        C423   1.525       .  S
C423        F427   1.385       .  S
C423        F428   1.381       .  S
C423        F429   1.383       .  S
C426        F430   1.383       .  S
C426        F431   1.383       .  S
C426        F432   1.384       .  S
C433        C434   1.405       .  A
C433        C438   1.411       .  A
C433        H936   1.083       .  S
C434        C435   1.421       .  A
C435        C436   1.403       .  A
C435        C442   1.524       .  S
C436        C437   1.406       .  A
C436        H441   1.082       .  S
C437        C438   1.422       .  A
C438        C935   1.519       .  S
C439        C934   1.519   1_545  S
C439        F443   1.385       .  S
C439        F444   1.384       .  S
C439        F941   1.383   1_545  S
H440        C929   1.083   1_545  S
C442        F446   1.383       .  S
C442        F447   1.384       .  S
C442        F448   1.385       .  S
F445        C935   1.383       .  S
C449        C450   1.404       .  A
C449        C454   1.408       .  A
C449        H456   1.083       .  S
C450        C451   1.423       .  A
C451        C452   1.407       .  A
C451        C458   1.522       .  S
C452        C453   1.404       .  A
C452        H457   1.083       .  S
C453        C454   1.423       .  A
C454        C455   1.522       .  S
C455        F459   1.385       .  S
C455        F460   1.383       .  S
C455        F461   1.384       .  S
C458        F462   1.383       .  S
C458        F463   1.384       .  S
C458        F464   1.385       .  S
C465        C466   1.405       .  A
C465        C470   1.410       .  A
C465        H472   1.082       .  S
C466        C467   1.422       .  A
C467        C468   1.410       .  A
C467        C474   1.521       .  S
C468        C469   1.407       .  A
C468        H473   1.082       .  S
C469        C470   1.425       .  A
C470        C471   1.522       .  S
C471        F475   1.385       .  S
C471        F476   1.383       .  S
C471        F477   1.383       .  S
C474        F478   1.384       .  S
C474        F479   1.383       .  S
C474        F480   1.385       .  S
C481        C482   1.407       .  A
C481        C486   1.412       .  A
C481        H488   1.082       .  S
C482        C483   1.427       .  A
C482        C497   1.495       .  S
C483        C484   1.404       .  A
C483        C986   1.526       .  S
C484        C485   1.402       .  A
C484        H489   1.083       .  S
C485        C486   1.421       .  A
C486        C487   1.518       .  S
C487        F491   1.385       .  S
C487        F492   1.383       .  S
C487        F989   1.383       .  S
C490        C979   1.526   1_545  S
C490        F495   1.383       .  S
C490        F496   1.385       .  S
C490        F990   1.381   1_545  S
F493        C983   1.383       .  S
F494        C986   1.381       .  S
C497        C498   1.431       .  A
C497        C502   1.428       .  A
C498        H503   1.082       .  S
C499        C500   1.399       .  A
C499        C534   1.510       .  S
C500        C501   1.389       .  A
C500        H504   1.064   1_565  S
C501        C587   1.502       .  S
C502        H505   1.081       .  S
O506        C509   1.267       .  A
O506       Cd511   2.486       .  S
C507        C933   1.492       .  S
C507        O516   1.265       .  A
C507        O512   1.267       .  A
O508        C514   1.269       .  A
C509        C981   1.491       .  S
C509        O517   1.266       .  A
C510        C946   1.488       .  S
C510        O515   1.269       .  A
C510        O513   1.262       .  A
Cd511       O517   2.438       .  S
Cd511       O516   2.423       .  S
Cd511       O512   2.484       .  S
Cd511       O515   2.487       .  S
Cd511       O513   2.428       .  S
C514        C962   1.495       .  S
C514        O518   1.264       .  A
O519        C522   1.270       .  A
O519       Cd524   2.492       .  S
C520        C914   1.487       .  S
C520        O529   1.266   1_545  A
C520        O525   1.267       .  A
O521        C527   1.267       .  A
C522        C866   1.494       .  S
C522        O530   1.261       .  A
C523        C898   1.493       .  S
C523        O528   1.269       .  A
C523        O526   1.264       .  A
Cd524       O530   2.409       .  S
Cd524       O529   2.439       .  S
Cd524       O525   2.488   1_565  S
Cd524       O528   2.481       .  S
Cd524       O526   2.453       .  S
C527        C882   1.494       .  S
C527        O531   1.265       .  A
C532        C533   1.431       .  A
C532        C537   1.429       .  A
C532        C917   1.489       .  S
C533        C534   1.405   1_545  A
C533        H538   1.082       .  S
C534        C535   1.393       .  A
C535        C536   1.386   1_565  A
C535        H539   1.059       .  S
C536        C537   1.404       .  A
C537        H540   1.082       .  S
O541        C544   1.267       .  A
O541       Cd546   2.483       .  S
C542        C834   1.478       .  S
C542        O551   1.264       .  A
C542        O547   1.267       .  A
O543        C549   1.269       .  A
O543       Cd546   2.486       .  S
C544        C853   1.482       .  S
C544        O552   1.263       .  A
C545        C885   1.485       .  S
C545        O550   1.268       .  A
C545        O548   1.265       .  A
Cd546       O553   2.451       .  S
Cd546       O552   2.437       .  S
Cd546       O551   2.431       .  S
Cd546       O547   2.478       .  S
Cd546       O550   2.473       .  S
Cd546       O548   2.436       .  S
C549        C901   1.496       .  S
C549        O553   1.263       .  A
C554        C555   1.428       .  A
C554        C559   1.427       .  A
C554        C850   1.486       .  S
C555        C556   1.403       .  A
C555        H560   1.082       .  S
C556        C557   1.391       .  A
C556        C565   1.503       .  S
C557        C558   1.391       .  A
C557        H561   1.060       .  S
C558        C559   1.401       .  A
C558        C644   1.503       .  S
C559        H562   1.083       .  S
C563        C564   1.421       .  A
C563        C568   1.419       .  A
C563        C818   1.475       .  S
C564        C565   1.403   1_655  A
C564        H569   1.083   1_655  S
C565        C566   1.403       .  A
C566        C567   1.396   1_455  A
C566        H570   1.067       .  S
C567        C568   1.401       .  A
C567        C653   1.498       .  S
C568        H571   1.083       .  S
O572        C575   1.270       .  A
O572       Cd577   2.486       .  S
C573        C821   1.470       .  S
C573        O582   1.264       .  A
C573        O578   1.267       .  A
O574        C580   1.270       .  A
O574       Cd577   2.483       .  S
C575        C802   1.493       .  S
C575        O583   1.261       .  A
C576        C965   1.497       .  S
C576        O581   1.270       .  A
C576        O579   1.263       .  A
Cd577       O584   2.427       .  S
Cd577       O583   2.413       .  S
Cd577       O582   2.444       .  S
Cd577       O578   2.469       .  S
Cd577       O581   2.489       .  S
Cd577       O579   2.449       .  S
C580        C949   1.489       .  S
C580        O584   1.262       .  A
C585        C586   1.423   1_554  A
C585        C590   1.415       .  A
C585        C786   1.491       .  S
C586        C587   1.403       .  A
C586        H591   1.082       .  S
C587        C588   1.408       .  A
C588        C589   1.404   1_556  A
C588        H592   1.073       .  S
C589        C590   1.399       .  A
C590        H593   1.081   1_565  S
O594        C597   1.269       .  A
O594       Cd599   2.460       .  S
C595        C930   1.486       .  S
C595        O604   1.262       .  A
C595        O600   1.270       .  A
O596        C602   1.266       .  A
O596       Cd599   2.473       .  S
C597        C789   1.487       .  S
C597        O605   1.263       .  A
C598        C770   1.486       .  S
C598        O603   1.270       .  A
C598        O601   1.262       .  A
Cd599       O606   2.441       .  S
Cd599       O605   2.444       .  S
Cd599       O604   2.416       .  S
Cd599       O600   2.487       .  S
C602        C754   1.491       .  S
C602        O606   1.266       .  A
O607        C610   1.270       .  A
O607       Cd612   2.450       .  S
C608        C869   1.495       .  S
C608        O617   1.264       .  A
C608        O613   1.268       .  A
O609        C615   1.269       .  A
C611        C722   1.467       .  S
C611        O616   1.268       .  A
C611        O614   1.263       .  A
Cd612       O617   2.411       .  S
Cd612       O613   2.494       .  S
Cd612       O616   2.458       .  S
Cd612       O614   2.426       .  S
C615        C706   1.492       .  S
C615        O619   1.263       .  A
C620        C621   1.425   1_554  A
C620        C625   1.417       .  A
C620        C741   1.495       .  S
C621        C622   1.403       .  A
C621        H626   1.082       .  S
C622        C623   1.408       .  A
C623        C624   1.401   1_556  A
C623        H627   1.072       .  S
C624        C625   1.400       .  A
C625        H628   1.080       .  S
O629        C632   1.266       .  A
O629       Cd634   2.462       .  S
C630        C837   1.475       .  S
C630        O639   1.263       .  A
C630        O635   1.268       .  A
O631        C637   1.269       .  A
O631       Cd634   2.470       .  S
C632        C690   1.495       .  S
C632        O640   1.266       .  A
C633        C725   1.482       .  S
C633        O638   1.267       .  A
C633        O636   1.264       .  A
Cd634       O641   2.440       .  S
Cd634       O640   2.449       .  S
Cd634       O639   2.426       .  S
Cd634       O635   2.479       .  S
Cd634       O638   2.471       .  S
Cd634       O636   2.419       .  S
C637        C709   1.492       .  S
C637        O641   1.264       .  A
C642        C643   1.428   1_554  A
C642        C647   1.434       .  A
C642        C693   1.509       .  S
C643        C644   1.397       .  A
C643        H648   1.073       .  S
C644        C645   1.396       .  A
C645        C646   1.392   1_556  A
C645        H649   1.065       .  S
C646        C647   1.405       .  A
C646        C655   1.502       .  S
C647        H650   1.083       .  S
C651        C652   1.422   1_554  A
C651        C656   1.422       .  A
C651        C674   1.492       .  S
C652        C653   1.399       .  A
C652        H657   1.083       .  S
C653        C654   1.403   1_655  A
C654        C655   1.404   1_556  A
C654        H658   1.070       .  S
C655        C656   1.402   1_455  A
C656        H659   1.081   1_655  S
O660        C663   1.269       .  A
O660       Cd665   2.492       .  S
C661        C805   1.494       .  S
C661        O670   1.265       .  A
C661        O666   1.268       .  A
O662        C668   1.266       .  A
O662       Cd665   2.470       .  S
C663        C677   1.485       .  S
C663        O671   1.262       .  A
C664        C773   1.483       .  S
C664        O669   1.269       .  A
C664        O667   1.263       .  A
Cd665       O672   2.449       .  S
Cd665       O671   2.417       .  S
Cd665       O670   2.409       .  S
Cd665       O666   2.488       .  S
Cd665       O669   2.464       .  S
Cd665       O667   2.418       .  S
C668        C757   1.494       .  S
C668        O672   1.267       .  A
C673        C674   1.407       .  A
C673        C678   1.403       .  A
C673        H680   1.082       .  S
C674        C675   1.420       .  A
C675        C676   1.409       .  A
C675        C682   1.518       .  S
C676        C677   1.406       .  A
C676        H681   1.084       .  S
C677        C678   1.420       .  A
C678        C679   1.523       .  S
C679        F683   1.385       .  S
C679        F684   1.384       .  S
C679        F685   1.383       .  S
C682        F686   1.383       .  S
C682        F687   1.382       .  S
C682        F688   1.384       .  S
C689        C690   1.407       .  A
C689        C694   1.407       .  A
C689        H696   1.084       .  S
C690        C691   1.420       .  A
C691        C692   1.406       .  A
C691        C698   1.522       .  S
C692        C693   1.413       .  A
C692        H697   1.080       .  S
C693        C694   1.427       .  A
C694        C695   1.519       .  S
C695        F699   1.385       .  S
C695        F700   1.382   1_554  S
C695        F701   1.384   1_554  S
C698        F702   1.384       .  S
C698        F703   1.383       .  S
C698        F704   1.385       .  S
C705        C706   1.405       .  A
C705        C710   1.408       .  A
C705        H712   1.082       .  S
C706        C707   1.423       .  A
C707        C708   1.407       .  A
C707        C714   1.522       .  S
C708        C709   1.405       .  A
C708        H713   1.082       .  S
C709        C710   1.422       .  A
C710        C711   1.521       .  S
C711        F715   1.385       .  S
C711        F716   1.384       .  S
C711        F717   1.383       .  S
C714        F718   1.384       .  S
C714        F719   1.383       .  S
C714        F720   1.385       .  S
C721        C722   1.400       .  A
C721        C726   1.407       .  A
C721        H728   1.083       .  S
C722        C723   1.412       .  A
C723        C724   1.402       .  A
C723        C730   1.520       .  S
C724        C725   1.407       .  A
C724        H729   1.083       .  S
C725        C726   1.421       .  A
C726        C727   1.519       .  S
C727        F731   1.385       .  S
C727        F732   1.384       .  S
C727        F733   1.383       .  S
C730        F734   1.382       .  S
C730        F735   1.384       .  S
C730        F736   1.385       .  S
C737        C742   1.403       .  A
C737        H744   1.082       .  S
C738        C739   1.423       .  A
C739        C740   1.411       .  A
C739        C746   1.521       .  S
C740        C741   1.406       .  A
C740        H745   1.082       .  S
C742        C743   1.527       .  S
C743        F747   1.385       .  S
C743        F749   1.381   1_545  S
C746        F750   1.384       .  S
C746        F752   1.385       .  S
C753        C754   1.406       .  A
C753        C758   1.408       .  A
C753        H760   1.082       .  S
C754        C755   1.420       .  A
C755        C756   1.408       .  A
C755        C762   1.521       .  S
C756        C757   1.407       .  A
C756        H761   1.082       .  S
C757        C758   1.423       .  A
C758        C759   1.521       .  S
C759        F763   1.385       .  S
C759        F764   1.383       .  S
C759        F765   1.383       .  S
C762        F766   1.384       .  S
C762        F767   1.383       .  S
C762        F768   1.385       .  S
C769        C770   1.404       .  A
C769        C774   1.404       .  A
C769        H776   1.083       .  S
C770        C771   1.423       .  A
C771        C772   1.406       .  A
C771        C778   1.522       .  S
C772        C773   1.403       .  A
C772        H777   1.083       .  S
C773        C774   1.421       .  A
C774        C775   1.522       .  S
C775        F779   1.385       .  S
C775        F780   1.383       .  S
C775        F781   1.384       .  S
C778        F782   1.383       .  S
C778        F783   1.384       .  S
C778        F784   1.385       .  S
C785        C786   1.405   1_545  A
C785        C790   1.410       .  A
C785        H792   1.082       .  S
C786        C787   1.426       .  A
C787        C788   1.404       .  A
C787        C794   1.525       .  S
C788        C789   1.401       .  A
C788        H793   1.083       .  S
C789        C790   1.423   1_565  A
C790        C791   1.520       .  S
C791        F795   1.385       .  S
C791        F796   1.383       .  S
C794        F798   1.383       .  S
C794        F799   1.381       .  S
C794        F800   1.385       .  S
C801        C802   1.408       .  A
C801        C806   1.411       .  A
C801        H808   1.082       .  S
C802        C803   1.424       .  A
C803        C804   1.403       .  A
C803        C810   1.525       .  S
C804        C805   1.406       .  A
C804        H809   1.081       .  S
C805        C806   1.421       .  A
C806        C807   1.520       .  S
C807        F811   1.385       .  S
C807        F812   1.383       .  S
C807        F813   1.383       .  S
C810        F814   1.383       .  S
C810        F815   1.384       .  S
C810        F816   1.385       .  S
C817        C818   1.403       .  A
C817        C822   1.403       .  A
C817        H824   1.084       .  S
C818        C819   1.412       .  A
C819        C820   1.410       .  A
C819        C826   1.514       .  S
C820        C821   1.405       .  A
C820        H825   1.083       .  S
C821        C822   1.412       .  A
C822        C823   1.518       .  S
C823        F827   1.384       .  S
C823        F828   1.383       .  S
C823        F829   1.383       .  S
C826        F830   1.383       .  S
C826        F831   1.383       .  S
C826        F832   1.384       .  S
C833        C834   1.403       .  A
C833        C838   1.404       .  A
C833        H840   1.083       .  S
C834        C835   1.418       .  A
C835        C836   1.408       .  A
C835        C842   1.519       .  S
C836        C837   1.403       .  A
C836        H841   1.083       .  S
C837        C838   1.416       .  A
C838        C839   1.520       .  S
C839        F843   1.385       .  S
C839        F844   1.382       .  S
C839        F845   1.384       .  S
C842        F846   1.384       .  S
C842        F847   1.382       .  S
C842        F848   1.385       .  S
C849        C850   1.407       .  A
C849        C854   1.404       .  A
C849        H856   1.083       .  S
C850        C851   1.417       .  A
C851        C852   1.409       .  A
C851        C858   1.517       .  S
C852        C853   1.406       .  A
C852        H857   1.084       .  S
C853        C854   1.418       .  A
C854        C855   1.522       .  S
C855        F859   1.385       .  S
C855        F860   1.384       .  S
C855        F861   1.383       .  S
C858        F862   1.383       .  S
C858        F863   1.382       .  S
C858        F864   1.384       .  S
C865        C866   1.408       .  A
C865        C870   1.411       .  A
C865        H872   1.082       .  S
C866        C867   1.425       .  A
C867        C868   1.403       .  A
C867        C874   1.525       .  S
C868        C869   1.406       .  A
C868        H873   1.081       .  S
C869        C870   1.422       .  A
C870        C871   1.519       .  S
C871        F875   1.385       .  S
C871        F877   1.383       .  S
C874        F879   1.384       .  S
C874        F880   1.385       .  S
C881        C882   1.409       .  A
C881        C886   1.406       .  A
C881        H888   1.082       .  S
C882        C883   1.422       .  A
C883        C884   1.408       .  A
C883        C890   1.520       .  S
C884        C885   1.405       .  A
C884        H889   1.083       .  S
C885        C886   1.417       .  A
C886        C887   1.521       .  S
C887        F891   1.385       .  S
C887        F892   1.382       .  S
C887        F893   1.384       .  S
C890        F894   1.383       .  S
C890        F895   1.383       .  S
C890        F896   1.385       .  S
C897        C898   1.405       .  A
C897        C902   1.409       .  A
C897        H904   1.082       .  S
C898        C899   1.421       .  A
C899        C900   1.409       .  A
C899        C906   1.521       .  S
C900        C901   1.407       .  A
C900        H905   1.082       .  S
C901        C902   1.425       .  A
C902        C903   1.522       .  S
C903        F907   1.385       .  S
C903        F908   1.383       .  S
C903        F909   1.383       .  S
C906        F910   1.384       .  S
C906        F911   1.383       .  S
C906        F912   1.385       .  S
C913        C914   1.401   1_565  A
C913        C918   1.403       .  A
C913        H920   1.083       .  S
C915        C916   1.413       .  A
C915        C922   1.517       .  S
C916        H921   1.083       .  S
C917        C918   1.425   1_545  A
C918        C919   1.525       .  S
C919        F923   1.385       .  S
C919        F924   1.381       .  S
C919        F925   1.383       .  S
C922        F926   1.383       .  S
C922        F927   1.383       .  S
C922        F928   1.384       .  S
C929        C930   1.405       .  A
C929        C934   1.411       .  A
C930        C931   1.421       .  A
C931        C932   1.403       .  A
C931        C938   1.524       .  S
C932        C933   1.406       .  A
C932        H937   1.082       .  S
C933        C934   1.422       .  A
C935        F939   1.385       .  S
C935        F940   1.384       .  S
C938        F942   1.383       .  S
C938        F943   1.384       .  S
C938        F944   1.385       .  S
C945        C946   1.404       .  A
C945        C950   1.408       .  A
C945        H952   1.083       .  S
C946        C947   1.423       .  A
C947        C948   1.407       .  A
C947        C954   1.522       .  S
C948        C949   1.404       .  A
C948        H953   1.083       .  S
C949        C950   1.423       .  A
C950        C951   1.522       .  S
C951        F955   1.385       .  S
C951        F956   1.383       .  S
C951        F957   1.384       .  S
C954        F958   1.383       .  S
C954        F959   1.384       .  S
C954        F960   1.385       .  S
C961        C962   1.405       .  A
C961        C966   1.410       .  A
C961        H968   1.082       .  S
C962        C963   1.422       .  A
C963        C964   1.410       .  A
C963        C970   1.521       .  S
C964        C965   1.407       .  A
C964        H969   1.082       .  S
C965        C966   1.425       .  A
C966        C967   1.522       .  S
C967        F971   1.385       .  S
C967        F972   1.383       .  S
C967        F973   1.383       .  S
C970        F974   1.384       .  S
C970        F975   1.383       .  S
C970        F976   1.385       .  S
C977        C978   1.407       .  A
C977        C982   1.412       .  A
C977        H984   1.082       .  S
C978        C979   1.427       .  A
C979        C980   1.404       .  A
C980        C981   1.402       .  A
C980        H985   1.083   1_565  S
C981        C982   1.421       .  A
C982        C983   1.518       .  S
C983        F987   1.385       .  S
C983        F988   1.383       .  S
C986        F991   1.383       .  S
C986        F992   1.385       .  S
