geometry optimzed in LAMMPS
_audit_creation_date              2020-11-30 
_audit_creation_method            'lammps2cif' 
_symmetry_space_group_name_H-M    'P1' 
_symmetry_Int_Tables_number       1 
_symmetry_cell_setting            triclinic 
loop_ 
_symmetry_equiv_pos_as_xyz 
  x,y,z 
_cell_length_a                    35.06441042 
_cell_length_b                    35.46263215544233 
_cell_length_c                    35.51075997760457 
_cell_angle_alpha                 89.83196767716484 
_cell_angle_beta                  90.10946630439855 
_cell_angle_gamma                 90.15135589151147 
loop_ 
_atom_site_label 
_atom_site_type_symbol 
_atom_site_fract_x 
_atom_site_fract_y 
_atom_site_fract_z 
_atom_site_charge 
C1          C  0.42184374  0.41559679  0.41085053     0.44200
N2          N  0.46556185  0.45444854  0.42743679     0.03100
C3          C  0.57007038  0.45222656  0.59319833    -0.04800
H4          H  0.42527253  0.47005625  0.61151711     0.08600
C5          C  0.43405833  0.59359027  0.54123195    -0.05200
Co6        Co  0.50459938  0.42966396  0.49817436     0.74200
N7          N  0.46078575  0.45900244  0.56344183    -0.24300
Co8        Co  0.50228850  0.50087000  0.56425289     0.74100
C9          C  0.41648999  0.58085883  0.57649103     0.44300
N10         N  0.46349564  0.56564762  0.44972480     0.02700
N11         N  0.46077383  0.54233025  0.56088976     0.02800
N12         N  0.57083864  0.40573693  0.54983127    -0.45200
H13         H  0.43188019  0.37838509  0.46320375     0.08500
N14         N  0.46153361  0.43154721  0.53851197     0.03100
N15         N  0.54358887  0.54315025  0.56349477     0.02800
C16         C  0.58668156  0.58271974  0.58036034     0.44400
N17         N  0.46504471  0.53870094  0.42422148    -0.23800
C18         C  0.57417968  0.40356528  0.45107099    -0.04700
N19         N  0.44082301  0.44702246  0.40024397    -0.44900
N20         N  0.56857961  0.55059922  0.59049128    -0.45100
C21         C  0.59267588  0.41580722  0.41612684     0.44200
N22         N  0.54485541  0.43160271  0.54160826     0.03100
N23         N  0.54780802  0.53922090  0.42741955    -0.23800
N24         N  0.46468355  0.42916106  0.45477196    -0.24300
N25         N  0.54659081  0.56653884  0.45251590     0.02700
H26         H  0.58150099  0.53067429  0.37753378     0.08600
H27         H  0.57596152  0.61973077  0.52779450     0.08600
N28         N  0.54372311  0.45891247  0.56667050    -0.24400
N29         N  0.46120502  0.56803544  0.53399627    -0.24000
N30         N  0.54838503  0.45501448  0.43057269     0.03100
C31         C  0.41424875  0.41796200  0.57437634     0.44500
C32         C  0.43858849  0.54553969  0.39775084    -0.05200
N33         N  0.54377065  0.56875752  0.53645691    -0.24000
H34         H  0.42947868  0.61922674  0.52533391     0.08600
N35         N  0.43456545  0.40597037  0.54440554    -0.45200
H36         H  0.43389856  0.52867733  0.37284362     0.08600
C37         C  0.59154808  0.58288672  0.41484368     0.44300
C38         C  0.43768110  0.40358600  0.44695242    -0.04700
Co39       Co  0.50677130  0.49675756  0.42673090     0.73800
N40         N  0.43713383  0.59126645  0.44198739    -0.44900
C41         C  0.58837447  0.41688633  0.58194572     0.44600
N42         N  0.57480895  0.44771979  0.40509836    -0.44900
Co43       Co  0.50371631  0.56792692  0.49309455     0.73900
C44         C  0.57028338  0.59476161  0.54441362    -0.05200
C45         C  0.43177920  0.45303423  0.58715752    -0.04800
N46         N  0.54723154  0.42940972  0.45756177    -0.24300
N47         N  0.43483925  0.54913190  0.58690694    -0.45100
H48         H  0.57393795  0.46910521  0.61818418     0.08600
C49         C  0.57553625  0.54684502  0.40260327    -0.05200
Cl50       Cl  0.50439040  0.49881752  0.49554475    -0.48200
C51         C  0.42001283  0.58047369  0.40960989     0.44300
H52         H  0.57803192  0.37819591  0.46752812     0.08500
N53         N  0.57185731  0.59349513  0.44569516    -0.44900
C54         C  0.08818011  0.40987796  0.91716940     0.44200
N55         N  0.07225025  0.45023580  0.95914623     0.03100
C56         C  0.90692940  0.45581388  0.06578721    -0.04800
H57         H  0.88335937  0.46895590  0.92431712     0.08600
C58         C  0.96036053  0.59077747  0.92443235    -0.05200
Co59       Co  0.00071114  0.42876709  0.99966920     0.74200
N60         N  0.93366520  0.45831128  0.95718180    -0.24300
Co61       Co  0.93503372  0.50183363  0.99635988     0.74100
C62         C  0.92371875  0.57942221  0.90825242     0.44300
N63         N  0.05168593  0.56106065  0.95296706     0.02700
N64         N  0.93823583  0.54181667  0.95346379     0.02800
N65         N  0.94985257  0.40838177  0.06642531    -0.45200
H66         H  0.03428789  0.37398356  0.92884112     0.08500
N67         N  0.95856585  0.43047618  0.95790589     0.03100
N68         N  0.93809140  0.54574563  0.03553059     0.02800
C69         C  0.92434579  0.58702068  0.07776800     0.44400
N70         N  0.07689612  0.53361177  0.95513685    -0.23800
C71         C  0.04826693  0.40464391  0.06989201    -0.04700
N72         N  0.09910001  0.44198216  0.93440177    -0.44900
N73         N  0.91218078  0.55485158  0.06107661    -0.45100
C74         C  0.08409686  0.41669168  0.08717273     0.44200
N75         N  0.95791048  0.43351338  0.04000191     0.03100
N76         N  0.07575198  0.53766477  0.03691613    -0.23800
N77         N  0.04423042  0.42534004  0.95963591    -0.24300
N78         N  0.05091716  0.56547038  0.03477059     0.02700
H79         H  0.12612029  0.52910732  0.07084358     0.08600
H80         H  0.97798888  0.62209003  0.06299437     0.08600
N81         N  0.93308288  0.46137278  0.03883843    -0.24400
N82         N  0.96669499  0.56615212  0.95233274    -0.24000
N83         N  0.07087289  0.45353854  0.04096927     0.03100
C84         C  0.91954599  0.41578638  0.91345748     0.44500
C85         C  0.10319599  0.53872390  0.92823327    -0.05200
N86         N  0.96632446  0.57033743  0.03390605    -0.24000
H87         H  0.97825775  0.61477199  0.91788353     0.08600
N88         N  0.95087277  0.40415566  0.93253157    -0.45200
H89         H  0.12840225  0.52164610  0.92456228     0.08600
C90         C  0.08944260  0.58239278  0.07847867     0.44300
C91         C  0.05164471  0.39869111  0.93393356    -0.04700
Co92       Co  0.07463570  0.49369463  0.99814853     0.73800
N93         N  0.05973809  0.58561791  0.92600373    -0.44900
C94         C  0.91820772  0.42058227  0.08420009     0.44600
N95         N  0.09671247  0.44682886  0.06739923    -0.44900
Co96       Co  0.00901564  0.56636454  0.99336208     0.73900
C97         C  0.96029095  0.59736513  0.05947186    -0.05200
C98         C  0.90804842  0.45166710  0.93002223    -0.04800
N99         N  0.04259530  0.42890326  0.04144663    -0.24300
N100        N  0.91171584  0.54891825  0.92781483    -0.45100
H101        H  0.88187489  0.47298279  0.06997411     0.08600
C102        C  0.10116170  0.54565408  0.06404350    -0.05200
Cl103      Cl  0.00483978  0.49764255  0.99689861    -0.48200
C104        C  0.09168902  0.57330158  0.90879386     0.44300
H105        H  0.03077377  0.38024143  0.07605051     0.08500
N106        N  0.05838923  0.59301993  0.05871213    -0.44900
C107        C  0.75269347  0.24784942  0.74854036    -0.00800
C108        C  0.42402266  0.08258971  0.91301942     0.44200
N109        N  0.43731245  0.04469240  0.95875902     0.03100
C110        C  0.60160879  0.04133325  0.06798455    -0.04800
H111        H  0.62545271  0.02194560  0.92771036     0.08600
C112        C  0.54928830  0.90040543  0.93331561    -0.05200
Co113      Co  0.50830515  0.06689811  0.00014239     0.74200
N114        N  0.57549349  0.03473299  0.96007282    -0.24300
Co115      Co  0.57321186  0.99280568  0.00114752     0.74100
C116        C  0.58617579  0.91128901  0.91698627     0.44300
N117        N  0.45722414  0.93308807  0.95846317     0.02700
N118        N  0.57054740  0.95089331  0.96015943     0.02800
N119        N  0.55964778  0.08951980  0.06650608    -0.45200
H120        H  0.47801955  0.11828435  0.92537794     0.08500
N121        N  0.55097617  0.06290132  0.95939825     0.03100
N122        N  0.56921392  0.95066477  0.04244465     0.02800
C123        C  0.58180729  0.91103912  0.08697839     0.44400
N124        N  0.43214119  0.96077951  0.95851390    -0.23800
C125        C  0.45938038  0.09526870  0.06765689    -0.04700
N126        N  0.41174900  0.05187777  0.93219093    -0.44900
N127        N  0.59462954  0.94228983  0.06886239    -0.45100
C128        C  0.42307274  0.08455107  0.08524746     0.44200
N129        N  0.55071040  0.06330500  0.04147161     0.03100
N130        N  0.43138975  0.96004205  0.04075976    -0.23800
N131        N  0.46575089  0.06910062  0.95877881    -0.24300
N132        N  0.45623368  0.93215783  0.04046792     0.02700
H133        H  0.38051101  0.96995577  0.07323238     0.08600
H134        H  0.52697304  0.87698636  0.07354008     0.08600
N135        N  0.57507366  0.03503767  0.04160577    -0.24400
N136        N  0.54216239  0.92647980  0.95971447    -0.24000
N137        N  0.43700485  0.04488618  0.04127503     0.03100
C138        C  0.59084276  0.07598435  0.91531393     0.44500
C139        C  0.40710036  0.95489060  0.93046093    -0.05200
N140        N  0.54065859  0.92645248  0.04158766    -0.24000
H141        H  0.53192713  0.87570453  0.92829625     0.08600
N142        N  0.55931391  0.08835096  0.93328412    -0.45200
H143        H  0.38235896  0.97208329  0.92458254     0.08600
C144        C  0.41703653  0.91690785  0.08439529     0.44300
C145        C  0.45998529  0.09417125  0.93093541    -0.04700
Co146      Co  0.43362672  0.00266345  0.99994524     0.73800
N147        N  0.45035662  0.90778883  0.93200306    -0.44900
C148        C  0.59141615  0.07768142  0.08470858     0.44600
N149        N  0.41095407  0.05317743  0.06699524    -0.44900
Co150      Co  0.49888694  0.92899809  0.99998788     0.73900
C151        C  0.54575747  0.90066229  0.06871563    -0.05200
C152        C  0.60147774  0.04023151  0.93304851    -0.04800
N153        N  0.46546349  0.06931086  0.04093328    -0.24300
N154        N  0.59749124  0.94269831  0.93543042    -0.45100
H155        H  0.62611601  0.02353703  0.07253844     0.08600
C156        C  0.40550350  0.95305548  0.06776475    -0.05200
Cl157      Cl  0.50349534  0.99787146  0.00035751    -0.48200
C158        C  0.41937076  0.91966443  0.91280304     0.44300
H159        H  0.47729824  0.11963628  0.07232585     0.08500
N160        N  0.44848124  0.90576051  0.06571739    -0.44900
C161        C  0.25759960  0.74657835  0.74861396    -0.00800
C162        C  0.91776390  0.08526244  0.42327919     0.44200
N163        N  0.95831544  0.04238524  0.43778082     0.03100
C164        C  0.95871712  0.92688108  0.59551159    -0.04800
H165        H  0.97384609  0.06503452  0.62721816     0.08600
C166        C  0.10129499  0.06566859  0.55017561    -0.05200
Co167      Co  0.93485288  0.99827010  0.50573329     0.74200
N168        N  0.96498427  0.03651458  0.57432271    -0.24300
Co169      Co  0.00814995  0.99638643  0.57137468     0.74100
C170        C  0.09016388  0.08078585  0.58670093     0.44300
N171        N  0.07085323  0.04301206  0.45877248     0.02700
N172        N  0.05011639  0.03814143  0.57022676     0.02800
N173        N  0.91137214  0.93023483  0.55234663    -0.45200
H174        H  0.88076570  0.07112948  0.47517489     0.08500
N175        N  0.93694600  0.03724051  0.54945842     0.03100
N176        N  0.05132380  0.95631771  0.56734156     0.02800
C177        C  0.09372964  0.91540624  0.58238960     0.44400
N178        N  0.04268852  0.04354150  0.43414738    -0.23800
C179        C  0.90943775  0.93087070  0.45526323    -0.04700
N180        N  0.95018020  0.06827329  0.41207817    -0.44900
N181        N  0.06072637  0.93137875  0.59356580    -0.45100
C182        C  0.92241377  0.91442075  0.41968074     0.44200
N183        N  0.93813622  0.95570067  0.54579394     0.03100
N184        N  0.04372722  0.96182746  0.43102944    -0.23800
N185        N  0.93289562  0.04081428  0.46506986    -0.24300
N186        N  0.07170952  0.96068974  0.45580652     0.02700
H187        H  0.03197084  0.93154993  0.38023385     0.08600
H188        H  0.12974711  0.92979239  0.52995058     0.08600
N189        N  0.96593374  0.95476799  0.57088263    -0.24400
N190        N  0.07513643  0.03931934  0.54252096    -0.24000
N191        N  0.95946238  0.96023644  0.43508705     0.03100
C192        C  0.92040596  0.07716427  0.59151014     0.44500
C193        C  0.04829709  0.07196711  0.40994066    -0.05200
N194        N  0.07654854  0.95814153  0.53985935    -0.24000
H195        H  0.12617036  0.07174535  0.53323451     0.08600
N196        N  0.90929122  0.06061090  0.55910547    -0.45200
H197        H  0.03077888  0.07789585  0.38555818     0.08600
C198        C  0.08542272  0.91731626  0.41586559     0.44300
C199        C  0.90619767  0.06701022  0.45851980    -0.04700
Co200      Co  0.00100414  0.00206235  0.43385506     0.73800
N201        N  0.09652122  0.06969139  0.45227085    -0.44900
C202        C  0.92243516  0.91063431  0.58302478     0.44600
N203        N  0.95336505  0.93444722  0.40893297    -0.44900
Co204      Co  0.07426979  0.00026682  0.49908168     0.73900
C205        C  0.10422982  0.93310371  0.54665645    -0.05200
C206        C  0.95732092  0.06123995  0.60175609    -0.04800
N207        N  0.93411207  0.95889677  0.46238027    -0.24300
N208        N  0.05827221  0.06228172  0.59751025    -0.45100
H209        H  0.97518694  0.92084395  0.62058370     0.08600
C210        C  0.04974481  0.93558900  0.40475807    -0.05200
Cl211      Cl  0.00457886  0.99928598  0.50257066    -0.48200
C212        C  0.08395382  0.08945090  0.42211114     0.44300
H213        H  0.88481730  0.92428398  0.47230778     0.08500
N214        N  0.09745210  0.93471569  0.44763988    -0.44900
C215        C  0.75914787  0.74998477  0.24957828    -0.00800
C216        C  0.25114255  0.24886964  0.25085878    -0.00800
C217        C  0.75577329  0.24885204  0.24924817    -0.00800
C218        C  0.24907931  0.74909962  0.25005095    -0.00800
C219        C  0.25739495  0.25060794  0.74778610    -0.00800
C220        C  0.75250022  0.74677057  0.74811415    -0.00800
C221        C  0.11984735  0.15121627  0.66124444     0.14400
C222        C  0.15981256  0.14909452  0.65896130     0.01300
C223        C  0.17656932  0.12331071  0.63415259     0.16300
C224        C  0.15392892  0.10103819  0.61081430     0.25700
C225        C  0.11392998  0.10392213  0.61202890    -0.40600
C226        C  0.09701544  0.12856539  0.63804120     0.32800
C227        C  0.18445802  0.17450216  0.68121327     0.01400
F228        F  0.21507991  0.11955595  0.63272252    -0.12900
F229        F  0.05847615  0.13153593  0.64015666    -0.13400
C230        C  0.18391822  0.17358731  0.72057242     0.16300
C231        C  0.20798358  0.19720729  0.74127838     0.25700
C232        C  0.23307413  0.22310538  0.72313425    -0.40500
C233        C  0.23554615  0.22084935  0.68319160     0.32700
C234        C  0.21047711  0.19814893  0.66278628     0.14400
F235        F  0.16027949  0.14948449  0.73906423    -0.12900
F236        F  0.26326736  0.23842123  0.66315543    -0.13400
F237        F  0.20543492  0.19588844  0.77937299    -0.15700
F238        F  0.21198038  0.19894082  0.62456261    -0.14300
F239        F  0.10302502  0.17599359  0.68505463    -0.14300
F240        F  0.17133927  0.07588327  0.58786898    -0.15700
C241        C  0.11140529  0.16536155  0.35197562     0.14400
C242        C  0.15133695  0.16351558  0.35332733     0.01300
C243        C  0.16905492  0.13922232  0.37921780     0.16300
C244        C  0.14715098  0.11606195  0.40263584     0.25700
C245        C  0.10706116  0.11680479  0.40043274    -0.40600
C246        C  0.08939277  0.14230392  0.37545078     0.32800
C247        C  0.17479652  0.18664322  0.32763747     0.01400
F248        F  0.20768302  0.13702581  0.38085978    -0.12900
F249        F  0.05082954  0.14520157  0.37388731    -0.13400
C250        C  0.19857265  0.21472334  0.34213776     0.16300
C251        C  0.22226842  0.23566467  0.31840472     0.25700
C252        C  0.22455802  0.22745869  0.27913281    -0.40500
C253        C  0.19805190  0.20068051  0.26480175     0.32700
C254        C  0.17386654  0.18043272  0.28875832     0.14400
F255        F  0.19794685  0.22273935  0.37951952    -0.12900
F256        F  0.19641911  0.19311655  0.22739277    -0.13400
F257        F  0.24033733  0.26547106  0.33431295    -0.15700
F258        F  0.15016140  0.15394253  0.27403076    -0.14300
F259        F  0.09378497  0.18963172  0.32800337    -0.14300
F260        F  0.16530053  0.09179818  0.42621904    -0.15700
C261        C  0.82616964  0.82081845  0.71400939     0.14400
C262        C  0.82109566  0.82091331  0.67490248     0.01300
C263        C  0.79086921  0.80029702  0.65933293     0.16300
C264        C  0.76739019  0.77805246  0.68217046     0.25700
C265        C  0.77487569  0.77412693  0.72145184    -0.40600
C266        C  0.80297620  0.79848763  0.73703923     0.32800
C267        C  0.84697417  0.84307846  0.65045549     0.01400
F268        F  0.78416469  0.80140620  0.62165844    -0.12900
F269        F  0.80981442  0.79889744  0.77464598    -0.13400
C270        C  0.88637448  0.83573058  0.65037475     0.16300
C271        C  0.91101033  0.85737437  0.62806261     0.25700
C272        C  0.89653124  0.88640002  0.60518771    -0.40500
C273        C  0.85695426  0.89312142  0.60465473     0.32700
C274        C  0.83246831  0.87180882  0.62728008     0.14400
F275        F  0.90088915  0.80727675  0.67162947    -0.12900
F276        F  0.84199114  0.92135833  0.58340666    -0.13400
F277        F  0.94888571  0.84952673  0.62832189    -0.15700
F278        F  0.79466056  0.88000951  0.62742077    -0.14300
F279        F  0.85386630  0.84234428  0.72998607    -0.14300
F280        F  0.73655005  0.76219273  0.66536270    -0.15700
C281        C  0.16883123  0.85829328  0.38226211     0.14400
C282        C  0.15381529  0.84168069  0.34963890     0.01300
C283        C  0.11564719  0.84815368  0.33986534     0.16300
C284        C  0.09294075  0.87171360  0.36190228     0.25700
C285        C  0.10822352  0.88968545  0.39404064    -0.40600
C286        C  0.14630867  0.88199638  0.40433519     0.32800
C287        C  0.17835136  0.81850349  0.32518962     0.01400
F288        F  0.10063516  0.83244233  0.30828912    -0.12900
F289        F  0.16221190  0.89791378  0.43535709    -0.13400
C290        C  0.17126373  0.77994961  0.32079274     0.16300
C291        C  0.19477207  0.75808331  0.29786909     0.25700
C292        C  0.22475124  0.77466020  0.27651110    -0.40500
C293        C  0.23274369  0.81350346  0.28325696     0.32700
C294        C  0.20950297  0.83491725  0.30681169     0.14400
F295        F  0.14162256  0.76333641  0.33903044    -0.12900
F296        F  0.26424529  0.83097483  0.26954092    -0.13400
F297        F  0.18699930  0.72067590  0.29522342    -0.15700
F298        F  0.21760179  0.87204900  0.31181829    -0.14300
F299        F  0.20550625  0.85164305  0.39262027    -0.14300
F300        F  0.05608763  0.87666408  0.35145071    -0.15700
C301        C  0.81859274  0.83424403  0.29007633     0.14400
C302        C  0.83794373  0.81658175  0.31976698     0.01300
C303        C  0.83508447  0.77750868  0.32400982     0.16300
C304        C  0.81158172  0.75651622  0.30012691     0.25700
C305        C  0.78831699  0.77434079  0.27245384    -0.40600
C306        C  0.79479929  0.81350242  0.26614776     0.32800
C307        C  0.86126116  0.83905707  0.34618892     0.01400
F308        F  0.85486415  0.75962360  0.35167249    -0.12900
F309        F  0.77976096  0.83211022  0.23622950    -0.13400
C310        C  0.85045770  0.84231740  0.38406944     0.16300
C311        C  0.87099101  0.86569784  0.40850969     0.25700
C312        C  0.90264897  0.88648936  0.39532953    -0.40500
C313        C  0.91441252  0.88152497  0.35766321     0.32700
C314        C  0.89376038  0.85819364  0.33337220     0.14400
F315        F  0.81925143  0.82369707  0.39711786    -0.12900
F316        F  0.94543019  0.89985371  0.34383045    -0.13400
F317        F  0.85958709  0.86783646  0.44490339    -0.15700
F318        F  0.90533970  0.85444121  0.29711365    -0.14300
F319        F  0.82238794  0.87197322  0.28449056    -0.14300
F320        F  0.80960532  0.71878215  0.30605914    -0.15700
C321        C  0.83215683  0.12365010  0.37074806     0.14400
C322        C  0.84900367  0.15060289  0.34687624     0.01300
C323        C  0.88874507  0.15600386  0.34829750     0.16300
C324        C  0.91112185  0.13494437  0.37343536     0.25700
C325        C  0.89402717  0.10862209  0.39792625    -0.40600
C326        C  0.85432896  0.10311503  0.39621416     0.32800
C327        C  0.82462787  0.17408499  0.32196105     0.01400
F328        F  0.90574337  0.18227659  0.32601529    -0.12900
F329        F  0.83695795  0.07675401  0.41805837    -0.13400
C330        C  0.79477481  0.19501290  0.33748646     0.16300
C331        C  0.77112130  0.21695433  0.31471621     0.25700
C332        C  0.77848143  0.22126852  0.27549526    -0.40500
C333        C  0.80659764  0.19717279  0.25981001     0.32700
C334        C  0.82977701  0.17457941  0.28281088     0.14400
F335        F  0.78834119  0.19425572  0.37519360    -0.12900
F336        F  0.81310364  0.19695615  0.22215777    -0.13400
F337        F  0.74004754  0.23198418  0.33160133    -0.15700
F338        F  0.85718784  0.15299690  0.26674337    -0.14300
F339        F  0.79408579  0.11675392  0.36895938    -0.14300
F340        F  0.94941058  0.14077964  0.37437597    -0.15700
C341        C  0.18518322  0.82347767  0.71877923     0.14400
C342        C  0.18966434  0.82524773  0.67961223     0.01300
C343        C  0.21828450  0.80370442  0.66267711     0.16300
C344        C  0.24137077  0.77994074  0.68413131     0.25700
C345        C  0.23472512  0.77476498  0.72335580    -0.40600
C346        C  0.20762162  0.79906383  0.74040175     0.32800
C347        C  0.16491759  0.84969860  0.65613926     0.01400
F348        F  0.22393146  0.80545081  0.62487961    -0.12900
F349        F  0.20146066  0.79791394  0.77810034    -0.13400
C350        C  0.18121816  0.87611917  0.63133184     0.16300
C351        C  0.15823813  0.89710343  0.60695055     0.25700
C352        C  0.11832601  0.89261498  0.60742395    -0.40500
C353        C  0.10190970  0.86721067  0.63322744     0.32700
C354        C  0.12502177  0.84563851  0.65711871     0.14400
F355        F  0.21951744  0.88195939  0.63104071    -0.12900
F356        F  0.06348781  0.86256265  0.63464825    -0.13400
F357        F  0.17516635  0.92269539  0.58389008    -0.15700
F358        F  0.10848184  0.81998370  0.68042598    -0.14300
F359        F  0.15904389  0.84551895  0.73623324    -0.14300
F360        F  0.27124272  0.76401072  0.66601793    -0.15700
C361        C  0.62569656  0.16213147  0.14159658     0.14400
C362        C  0.66061451  0.14911087  0.15574656     0.01300
C363        C  0.67226715  0.11227386  0.14785249     0.16300
C364        C  0.64953932  0.08862562  0.12571642     0.25700
C365        C  0.61466696  0.10163932  0.11051815    -0.40600
C366        C  0.60287574  0.13868554  0.11919048     0.32800
C367        C  0.68509757  0.17383386  0.17887011     0.01400
F368        F  0.70591489  0.09922351  0.16160186    -0.12900
F369        F  0.56944278  0.15255883  0.10575618    -0.13400
C370        C  0.68004769  0.17548248  0.21782941     0.16300
C371        C  0.70355484  0.19842499  0.23992462     0.25700
C372        C  0.73204598  0.22180873  0.22343144    -0.40500
C373        C  0.73877563  0.21701064  0.18414877     0.32700
C374        C  0.71495969  0.19406773  0.16229230     0.14400
F375        F  0.65214358  0.15479266  0.23454148    -0.12900
F376        F  0.76940406  0.23237037  0.16655511    -0.13400
F377        F  0.69710302  0.19903473  0.27755415    -0.15700
F378        F  0.72152882  0.19103011  0.12474255    -0.14300
F379        F  0.61392843  0.19775646  0.14916431    -0.14300
F380        F  0.66211911  0.05311645  0.11943269    -0.15700
C381        C  0.39202947  0.15995110  0.15573673     0.14400
C382        C  0.35331219  0.15098269  0.16111169     0.01300
C383        C  0.33841234  0.11881204  0.14320053     0.16300
C384        C  0.36130726  0.09678279  0.11957193     0.25700
C385        C  0.39976232  0.10652150  0.11285104    -0.40600
C386        C  0.41497054  0.13809388  0.13195027     0.32800
C387        C  0.32825713  0.17543287  0.18469723     0.01400
F388        F  0.30114290  0.10931903  0.14757325    -0.12900
F389        F  0.45214213  0.14797383  0.12810939    -0.13400
C390        C  0.32525288  0.21421817  0.17738614     0.16300
C391        C  0.30107407  0.23701496  0.19885644     0.25700
C392        C  0.27737225  0.22167737  0.22754580    -0.40500
C393        C  0.28257846  0.18266633  0.23602687     0.32700
C394        C  0.30719038  0.16014848  0.21464261     0.14400
F395        F  0.34521206  0.23014491  0.14870563    -0.12900
F396        F  0.26645745  0.16603839  0.26652518    -0.13400
F397        F  0.30003577  0.27438388  0.19061917    -0.15700
F398        F  0.31154309  0.12331806  0.22428533    -0.14300
F399        F  0.40786867  0.18979932  0.17390171    -0.14300
F400        F  0.34530573  0.06635029  0.10259882    -0.15700
C401        C  0.34109832  0.79076935  0.20262545     0.14400
C402        C  0.32561260  0.81926125  0.17980196     0.01300
C403        C  0.28588742  0.82294013  0.17791459     0.16300
C404        C  0.26217376  0.80015911  0.19995768     0.25700
C405        C  0.27728515  0.77256823  0.22498052    -0.40600
C406        C  0.31745958  0.76685340  0.22373868     0.32800
C407        C  0.35058732  0.84442566  0.15694402     0.01400
F408        F  0.26979965  0.84859056  0.15431089    -0.12900
F409        F  0.33455729  0.73723486  0.24097585    -0.13400
C410        C  0.37748784  0.82918167  0.13198747     0.16300
C411        C  0.39979062  0.85280420  0.10931595     0.25700
C412        C  0.39512671  0.89227522  0.11045773    -0.40500
C413        C  0.36870801  0.90756371  0.13593172     0.32700
C414        C  0.34686653  0.88389010  0.15910283     0.14400
F415        F  0.38121347  0.79125460  0.12843095    -0.12900
F416        F  0.36435578  0.94544767  0.13894293    -0.13400
F417        F  0.42494653  0.83675001  0.08520338    -0.15700
F418        F  0.32216760  0.89957759  0.18390738    -0.14300
F419        F  0.37946217  0.78596679  0.20461873    -0.14300
F420        F  0.22407509  0.80624783  0.19772663    -0.15700
C421        C  0.67839668  0.82117103  0.78013935     0.14400
C422        C  0.68412638  0.82318878  0.81911210     0.01300
C423        C  0.71426694  0.80287413  0.83523394     0.16300
C424        C  0.73719425  0.77939402  0.81319873     0.25700
C425        C  0.72954800  0.77419154  0.77411837    -0.40600
C426        C  0.70120975  0.79784211  0.75787057     0.32800
C427        C  0.65879432  0.84660791  0.84298195     0.01400
F428        F  0.72147600  0.80556886  0.87272160    -0.12900
F429        F  0.69414384  0.79702284  0.72030906    -0.13400
C430        C  0.61969308  0.83829701  0.84559185     0.16300
C431        C  0.59588923  0.85952468  0.86903067     0.25700
C432        C  0.61076178  0.88957832  0.89053920    -0.40500
C433        C  0.64995577  0.89824648  0.88715995     0.32700
C434        C  0.67363569  0.87692691  0.86373378     0.14400
F435        F  0.60466751  0.80896825  0.82598284    -0.12900
F436        F  0.66577572  0.92698245  0.90701060    -0.13400
F437        F  0.55827639  0.85062534  0.87024038    -0.15700
F438        F  0.71118276  0.88603429  0.86115415    -0.14300
F439        F  0.65057118  0.84196289  0.76350385    -0.14300
F440        F  0.76785102  0.76375792  0.83047089    -0.15700
C441        C  0.39383397  0.15399158  0.83799016     0.14400
C442        C  0.35509983  0.14509820  0.83336631     0.01300
C443        C  0.33993895  0.11382223  0.85251422     0.16300
C444        C  0.36266585  0.09278726  0.87730361     0.25700
C445        C  0.40114702  0.10282492  0.88376009    -0.40600
C446        C  0.41668149  0.13313854  0.86289706     0.32800
C447        C  0.32973973  0.17060223  0.81162726     0.01400
F448        F  0.30273252  0.10417293  0.84780306    -0.12900
F449        F  0.45383604  0.14312579  0.86667649    -0.13400
C450        C  0.33242377  0.17367558  0.77242359     0.16300
C451        C  0.30904782  0.19891970  0.75259460     0.25700
C452        C  0.28300493  0.22308778  0.77154851    -0.40500
C453        C  0.27907474  0.21743169  0.81111886     0.32700
C454        C  0.30258290  0.19220066  0.83059425     0.14400
F455        F  0.35744140  0.15184277  0.75320623    -0.12900
F456        F  0.25099125  0.23378246  0.83143906    -0.13400
F457        F  0.31257399  0.20034240  0.71455758    -0.15700
F458        F  0.29856729  0.18862293  0.86847257    -0.14300
F459        F  0.40916073  0.18397991  0.81953266    -0.14300
F460        F  0.34640738  0.06337007  0.89588691    -0.15700
C461        C  0.61854429  0.82899205  0.14661030     0.14400
C462        C  0.65279404  0.84378340  0.16070830     0.01300
C463        C  0.66235520  0.88142229  0.15276167     0.16300
C464        C  0.63871277  0.90355472  0.12977617     0.25700
C465        C  0.60485636  0.88845991  0.11431168    -0.40600
C466        C  0.59466499  0.85103490  0.12390279     0.32800
C467        C  0.67900644  0.81957942  0.18286743     0.01400
F468        F  0.69524943  0.89640437  0.16639762    -0.12900
F469        F  0.56215819  0.83497660  0.11082180    -0.13400
C470        C  0.69829507  0.78979669  0.16556244     0.16300
C471        C  0.72357471  0.76707416  0.18606946     0.25700
C472        C  0.73121859  0.77420089  0.22485906    -0.40500
C473        C  0.70891084  0.80271679  0.24230962     0.32700
C474        C  0.68407767  0.82552465  0.22144125     0.14400
F475        F  0.69238897  0.78245482  0.12848657    -0.12900
F476        F  0.71203710  0.80958622  0.27972956    -0.13400
F477        F  0.73827853  0.73694929  0.16777981    -0.15700
F478        F  0.66448352  0.85328029  0.23911983    -0.14300
F479        F  0.60830972  0.79290935  0.15469339    -0.14300
F480        F  0.64929489  0.93967965  0.12240529    -0.15700
C481        C  0.37885864  0.83354951  0.86397799     0.14400
C482        C  0.35256731  0.84968898  0.83893761     0.01300
C483        C  0.34998925  0.88913569  0.83630806     0.16300
C484        C  0.37232165  0.91213914  0.85969363     0.25700
C485        C  0.39781062  0.89594295  0.88579749    -0.40600
C486        C  0.40150423  0.85637986  0.88697400     0.32800
C487        C  0.32739901  0.82501025  0.81632303     0.01400
F488        F  0.32517807  0.90529899  0.81174119    -0.12900
F489        F  0.42604928  0.83952789  0.91133855    -0.13400
C490        C  0.29896671  0.80355487  0.83393203     0.16300
C491        C  0.27595420  0.77887391  0.81313732     0.25700
C492        C  0.28204368  0.77356362  0.77386269    -0.40500
C493        C  0.30968326  0.79734619  0.75641400     0.32700
C494        C  0.33210651  0.82228751  0.77739029     0.14400
F495        F  0.29279354  0.80729568  0.87148292    -0.12900
F496        F  0.31609424  0.79559003  0.71881608    -0.13400
F497        F  0.24658068  0.76237779  0.83174007    -0.15700
F498        F  0.35919179  0.84322176  0.75968851    -0.14300
F499        F  0.38237941  0.79548855  0.86630621    -0.14300
F500        F  0.36919831  0.95016117  0.85654548    -0.15700
C501        C  0.82586953  0.16991185  0.72374600     0.14400
C502        C  0.81979364  0.16436606  0.68522760     0.01300
C503        C  0.78926756  0.18265896  0.66757251     0.16300
C504        C  0.76669256  0.20823586  0.68737051     0.25700
C505        C  0.77509306  0.21756466  0.72549876    -0.40600
C506        C  0.80333361  0.19529929  0.74382832     0.32800
C507        C  0.84597543  0.14054923  0.66302009     0.01400
F508        F  0.78166964  0.17631947  0.63060919    -0.12900
F509        F  0.81097724  0.19966403  0.78099161    -0.13400
C510        C  0.83221393  0.10883890  0.64361243     0.16300
C511        C  0.85645330  0.08823936  0.62022671     0.25700
C512        C  0.89493774  0.09880484  0.61627052    -0.40500
C513        C  0.90900526  0.12974901  0.63663603     0.32700
C514        C  0.88462587  0.15065779  0.65963307     0.14400
F515        F  0.79534600  0.09771809  0.64755037    -0.12900
F516        F  0.94601298  0.14055433  0.63317567    -0.13400
F517        F  0.84253670  0.05740892  0.60218670    -0.15700
F518        F  0.89841569  0.18156714  0.67763153    -0.14300
F519        F  0.85401983  0.15091180  0.74194939    -0.14300
F520        F  0.73609606  0.22247014  0.66883399    -0.15700
C521        C  0.67520532  0.11782988  0.86268545     0.14400
C522        C  0.65798422  0.14762541  0.84291884     0.01300
C523        C  0.61833945  0.15267732  0.84571523     0.16300
C524        C  0.59641489  0.12871854  0.86846900     0.25700
C525        C  0.61377693  0.09938293  0.88904788    -0.40600
C526        C  0.65346910  0.09411005  0.88568493     0.32800
C527        C  0.68155698  0.17351055  0.81971747     0.01400
F528        F  0.60097465  0.18144927  0.82715880    -0.12900
F529        F  0.67185731  0.06703269  0.90566189    -0.13400
C530        C  0.67423939  0.17777048  0.78121680     0.16300
C531        C  0.69709204  0.20128594  0.75907816     0.25700
C532        C  0.72739383  0.22279488  0.77495686    -0.40500
C533        C  0.73545762  0.21656061  0.81382966     0.32700
C534        C  0.71243129  0.19289672  0.83572533     0.14400
F535        F  0.64533091  0.15832985  0.76467221    -0.12900
F536        F  0.76670049  0.23119040  0.83100595    -0.13400
F537        F  0.68869327  0.20358303  0.72187846    -0.15700
F538        F  0.72066004  0.18865246  0.87289039    -0.14300
F539        F  0.71329524  0.11167410  0.85975569    -0.14300
F540        F  0.55817428  0.13433217  0.87042574    -0.15700
C541        C  0.11095310  0.34978079  0.16608444     0.14400
C542        C  0.15055179  0.34669364  0.16103477     0.01300
C543        C  0.16855697  0.36898364  0.13350130     0.16300
C544        C  0.14715559  0.39299083  0.11042666     0.25700
C545        C  0.10726238  0.39480511  0.11428398    -0.40600
C546        C  0.08945475  0.37353313  0.14278768     0.32800
C547        C  0.17316703  0.31970990  0.18377259     0.01400
F548        F  0.20693550  0.36720239  0.12877482    -0.12900
F549        F  0.05119611  0.37573041  0.14810665    -0.13400
C550        C  0.19286367  0.29029067  0.16621178     0.16300
C551        C  0.21603889  0.26586800  0.18711893     0.25700
C552        C  0.22217015  0.27180525  0.22625626    -0.40500
C553        C  0.19884822  0.29941888  0.24393570     0.32700
C554        C  0.17521291  0.32318472  0.22292677     0.14400
F555        F  0.18906100  0.28475229  0.12856515    -0.12900
F556        F  0.20078077  0.30531783  0.28160712    -0.13400
F557        F  0.23062798  0.23576680  0.16872243    -0.15700
F558        F  0.15554059  0.35077122  0.24080125    -0.14300
F559        F  0.09294453  0.32887587  0.19278800    -0.14300
F560        F  0.16532399  0.41308548  0.08321118    -0.15700
C561        C  0.13556482  0.67093781  0.11663675     0.14400
C562        C  0.15699731  0.65664422  0.14688870     0.01300
C563        C  0.15546311  0.61785862  0.15509935     0.16300
C564        C  0.13321619  0.59363676  0.13303020     0.25700
C565        C  0.11189470  0.60792888  0.10266542    -0.40600
C566        C  0.11302135  0.64685193  0.09483869     0.32800
C567        C  0.18039033  0.68225607  0.17034553     0.01400
F568        F  0.17495270  0.60360525  0.18497194    -0.12900
F569        F  0.09336132  0.66148733  0.06525747    -0.13400
C570        C  0.16323779  0.71187510  0.18992047     0.16300
C571        C  0.18475964  0.73495431  0.21370057     0.25700
C572        C  0.22413292  0.72752739  0.22045064    -0.40500
C573        C  0.24167614  0.70038606  0.19680359     0.32700
C574        C  0.21994074  0.67750815  0.17291803     0.14400
F575        F  0.12523485  0.71833780  0.18631221    -0.12900
F576        F  0.27982679  0.69426230  0.19858331    -0.13400
F577        F  0.16674356  0.76543704  0.22813403    -0.15700
F578        F  0.23755603  0.65042796  0.15239535    -0.14300
F579        F  0.13712893  0.70816902  0.10770971    -0.14300
F580        F  0.13176534  0.55639801  0.14191638    -0.15700
C581        C  0.83262204  0.71767534  0.17464039     0.14400
C582        C  0.83482570  0.67860180  0.18031557     0.01300
C583        C  0.81454816  0.66249177  0.21028051     0.16300
C584        C  0.79091045  0.68449720  0.23306389     0.25700
C585        C  0.78571966  0.72372641  0.22577268    -0.40600
C586        C  0.80922350  0.73996139  0.19741730     0.32800
C587        C  0.85816303  0.65453192  0.15502598     0.01400
F588        F  0.81855778  0.62524249  0.21832065    -0.12900
F589        F  0.80832585  0.77758144  0.19045972    -0.13400
C590        C  0.89731306  0.66148944  0.15021204     0.16300
C591        C  0.91898983  0.63925766  0.12574713     0.25700
C592        C  0.90192881  0.60953669  0.10533703    -0.40500
C593        C  0.86280961  0.60212654  0.11094026     0.32700
C594        C  0.84122446  0.62442244  0.13542137     0.14400
F595        F  0.91479122  0.68951372  0.16975186    -0.12900
F596        F  0.84501203  0.57384190  0.09208583    -0.13400
F597        F  0.95683696  0.64662629  0.12278020    -0.15700
F598        F  0.80337789  0.61718690  0.13923967    -0.14300
F599        F  0.85238641  0.73429944  0.14621381    -0.14300
F600        F  0.77544105  0.66704246  0.26343743    -0.15700
C601        C  0.13283659  0.65809347  0.85802562     0.14400
C602        C  0.16164944  0.64176656  0.83614626     0.01300
C603        C  0.16656936  0.60246611  0.83698944     0.16300
C604        C  0.14329577  0.57989052  0.85991802     0.25700
C605        C  0.11480472  0.59636877  0.88244359    -0.40600
C606        C  0.10955465  0.63570686  0.88079496     0.32800
C607        C  0.18606012  0.66622844  0.81241094     0.01400
F608        F  0.19351379  0.58593932  0.81518832    -0.12900
F609        F  0.08268592  0.65290735  0.90214562    -0.13400
C610        C  0.22542240  0.66853286  0.81859621     0.16300
C611        C  0.24770315  0.69416356  0.79814373     0.25700
C612        C  0.23111472  0.71922030  0.77140520    -0.40500
C613        C  0.19148411  0.71419709  0.76369008     0.32700
C614        C  0.16952663  0.68863199  0.78437384     0.14400
F615        F  0.24223635  0.64663387  0.84527293    -0.12900
F616        F  0.17358730  0.73160934  0.73461858    -0.13400
F617        F  0.28567708  0.69524942  0.80546670    -0.15700
F618        F  0.13181222  0.68502900  0.77627836    -0.14300
F619        F  0.12787244  0.69606082  0.85804895    -0.14300
F620        F  0.14827633  0.54195247  0.85949146    -0.15700
C621        C  0.78560141  0.67023930  0.81909812     0.14400
C622        C  0.82497164  0.66862816  0.81318191     0.01300
C623        C  0.84125955  0.69055535  0.78463086     0.16300
C624        C  0.81891273  0.71487768  0.76295018     0.25700
C625        C  0.77931387  0.71961112  0.77066559    -0.40600
C626        C  0.76303465  0.69499313  0.79801561     0.32800
C627        C  0.84965870  0.64531792  0.83760900     0.01400
F628        F  0.87911829  0.68773411  0.77710889    -0.12900
F629        F  0.72510605  0.69582860  0.80542870    -0.13400
C630        C  0.84626757  0.60584242  0.83836256     0.16300
C631        C  0.87062176  0.58428834  0.86113105     0.25700
C632        C  0.89877936  0.60197301  0.88328915    -0.40500
C633        C  0.90163084  0.64159194  0.88271669     0.32700
C634        C  0.87732875  0.66295291  0.86007768     0.14400
F635        F  0.81986063  0.58821745  0.81657577    -0.12900
F636        F  0.92678306  0.66004004  0.90519096    -0.13400
F637        F  0.86705035  0.54614624  0.86110450    -0.15700
F638        F  0.88024477  0.70114463  0.86067350    -0.14300
F639        F  0.76908677  0.64867361  0.84622608    -0.14300
F640        F  0.83640261  0.73133960  0.73311428    -0.15700
C641        C  0.16995456  0.30308463  0.79130197     0.14400
C642        C  0.18740350  0.32467852  0.81934115     0.01300
C643        C  0.22726768  0.32470551  0.82223960     0.16300
C644        C  0.24918697  0.30166039  0.79874012     0.25700
C645        C  0.23173087  0.27676021  0.77249323    -0.40600
C646        C  0.19147549  0.28014004  0.76773348     0.38800
C647        C  0.16332682  0.34669026  0.84544772     0.01400
F648        F  0.24498210  0.34621412  0.84859987    -0.12900
F649        F  0.17231106  0.26381147  0.73885392    -0.13400
C650        C  0.13601623  0.32802562  0.86765895     0.16300
C651        C  0.11117419  0.34842402  0.89054249     0.25700
C652        C  0.11329079  0.38803743  0.89182611    -0.40500
C653        C  0.14105825  0.40669676  0.86989902     0.32700
C654        C  0.16579564  0.38617953  0.84682532     0.14400
F655        F  0.13367118  0.28979140  0.86739385    -0.12900
F656        F  0.14373613  0.44490547  0.87014950    -0.13400
F657        F  0.08596999  0.32912510  0.91224957    -0.15700
F658        F  0.19139916  0.40491551  0.82501468    -0.14300
F659        F  0.13162704  0.30502446  0.78599132    -0.14300
F660        F  0.28767814  0.30242120  0.80286766    -0.15700
C661        C  0.84357644  0.30614827  0.21169006     0.14400
C662        C  0.82663070  0.32802245  0.18344539     0.01300
C663        C  0.78717121  0.32591951  0.17807851     0.16300
C664        C  0.76515825  0.30090827  0.19941588     0.25700
C665        C  0.78206686  0.27631385  0.22641431    -0.40600
C666        C  0.82177504  0.28136104  0.23351557     0.32800
C667        C  0.85046152  0.35221764  0.15894014     0.01400
F668        F  0.76996804  0.34733731  0.15124960    -0.12900
F669        F  0.83987834  0.26475050  0.26291486    -0.13400
C670        C  0.87862713  0.33579184  0.13633942     0.16300
C671        C  0.90108167  0.35810866  0.11266812     0.25700
C672        C  0.89563134  0.39744197  0.11093125    -0.40500
C673        C  0.86765576  0.41393288  0.13403749     0.32700
C674        C  0.84521879  0.39145303  0.15778701     0.14400
F675        F  0.88369024  0.29783454  0.13647287    -0.12900
F676        F  0.86237113  0.45182272  0.13426656    -0.13400
F677        F  0.92734973  0.34086910  0.09062695    -0.15700
F678        F  0.81870480  0.40802759  0.18005950    -0.14300
F679        F  0.88148742  0.30957313  0.21887870    -0.14300
F680        F  0.72711813  0.29979112  0.19248789    -0.15700
C681        C  0.78716542  0.32324306  0.82007279     0.14400
C682        C  0.82656892  0.32457765  0.81401984     0.01300
C683        C  0.84217864  0.30356931  0.78458723     0.16300
C684        C  0.81915133  0.28006437  0.76253240     0.25700
C685        C  0.77958271  0.27545220  0.77053828    -0.40600
C686        C  0.76391266  0.29978632  0.79823413     0.32800
C687        C  0.85144136  0.34809665  0.83824867     0.01400
F688        F  0.87992685  0.30651951  0.77657436    -0.12900
F689        F  0.72609984  0.29929337  0.80604391    -0.13400
C690        C  0.87956680  0.33124333  0.86088263     0.16300
C691        C  0.90245788  0.35328002  0.88457874     0.25700
C692        C  0.89754564  0.39268231  0.88612012    -0.40500
C693        C  0.87007247  0.40953551  0.86242313     0.32700
C694        C  0.84708714  0.38739641  0.83898126     0.14400
F695        F  0.88404299  0.29321942  0.86086971    -0.12900
F696        F  0.86567769  0.44752052  0.86132680    -0.13400
F697        F  0.92855305  0.33579920  0.90682640    -0.15700
F698        F  0.82072537  0.40439443  0.81665158    -0.14300
F699        F  0.77122692  0.34384287  0.84809445    -0.14300
F700        F  0.83602830  0.26348536  0.73254691    -0.15700
C701        C  0.72133832  0.66993637  0.67699637     0.14400
C702        C  0.68182913  0.66854795  0.68161206     0.01300
C703        C  0.66482461  0.68979594  0.71007257     0.16300
C704        C  0.68676741  0.71358247  0.73279614     0.25700
C705        C  0.72645972  0.71866521  0.72588964    -0.40600
C706        C  0.74343360  0.69425599  0.69894060     0.32800
C707        C  0.65800934  0.64624703  0.65563656     0.01400
F708        F  0.62669678  0.68708033  0.71620855    -0.12900
F709        F  0.78148809  0.69534484  0.69223170    -0.13400
C710        C  0.65774105  0.60671720  0.65728389     0.16300
C711        C  0.63459242  0.58599994  0.63266048     0.25700
C712        C  0.61185652  0.60460229  0.60568638    -0.40500
C713        C  0.61236254  0.64431505  0.60421621     0.32700
C714        C  0.63522359  0.66486446  0.62902405     0.14400
F715        F  0.67946384  0.58830515  0.68309963    -0.12900
F716        F  0.58970981  0.66354474  0.57986895    -0.13400
F717        F  0.63463218  0.54777317  0.63500399    -0.15700
F718        F  0.63517479  0.70312183  0.62711224    -0.14300
F719        F  0.73843049  0.64875371  0.65010311    -0.14300
F720        F  0.66879862  0.72958233  0.76246000    -0.15700
C721        C  0.28092681  0.32784834  0.67385111     0.14400
C722        C  0.32079094  0.32834859  0.67356222     0.01300
C723        C  0.34068475  0.30701767  0.70039612     0.16300
C724        C  0.32121238  0.28370235  0.72577558     0.25700
C725        C  0.28092319  0.27928967  0.72349415    -0.40600
C726        C  0.26124884  0.30424941  0.69871205     0.32800
C727        C  0.34187963  0.35114703  0.64544873     0.01400
F728        F  0.37929957  0.30936903  0.70253031    -0.12900
F729        F  0.22264409  0.30396287  0.69646845    -0.13400
C730        C  0.33728778  0.39045367  0.64372835     0.16300
C731        C  0.35953589  0.41207291  0.61911263     0.25700
C732        C  0.38682680  0.39473583  0.59591938    -0.40500
C733        C  0.38981914  0.35518204  0.59613668     0.32700
C734        C  0.36761503  0.33361742  0.62081254     0.14400
F735        F  0.31235682  0.40806820  0.66695832    -0.12900
F736        F  0.41557138  0.33742092  0.57391733    -0.13400
F737        F  0.35459836  0.45002516  0.61822870    -0.15700
F738        F  0.37166792  0.29554492  0.62113169    -0.14300
F739        F  0.26088756  0.34905565  0.64884443    -0.14300
F740        F  0.34231186  0.26730672  0.75329211    -0.15700
C741        C  0.65958815  0.33931033  0.38119942     0.14400
C742        C  0.66419448  0.34979201  0.34338423     0.01300
C743        C  0.64696060  0.38279695  0.32999120     0.16300
C744        C  0.62467935  0.40480302  0.35393138     0.25700
C745        C  0.61894285  0.39393346  0.39179611    -0.40600
C746        C  0.63728532  0.36117525  0.40528613     0.32800
C747        C  0.68701170  0.32614767  0.31792062     0.01400
F748        F  0.65180882  0.39372343  0.29362851    -0.12900
F749        F  0.63399221  0.35009428  0.44171269    -0.13400
C750        C  0.66949751  0.30647795  0.28848105     0.16300
C751        C  0.69075120  0.28261351  0.26537991     0.25700
C752        C  0.73036947  0.27673029  0.27214611    -0.40500
C753        C  0.74796115  0.30001568  0.29978851     0.32700
C754        C  0.72641178  0.32344881  0.32289064     0.14400
F755        F  0.63148926  0.31029335  0.28214423    -0.12900
F756        F  0.78607881  0.29845304  0.30614520    -0.13400
F757        F  0.67226987  0.26737142  0.23548899    -0.15700
F758        F  0.74409559  0.34350804  0.35039862    -0.14300
F759        F  0.67614708  0.30737920  0.39459562    -0.14300
F760        F  0.60823831  0.43637636  0.33963550    -0.15700
C761        C  0.34094868  0.65055707  0.38824017     0.14400
C762        C  0.33935699  0.64943232  0.34871291     0.01300
C763        C  0.36397621  0.62510739  0.32930650     0.16300
C764        C  0.38991151  0.60242267  0.34896605     0.25700
C765        C  0.39173992  0.60356061  0.38859241    -0.40600
C766        C  0.36699029  0.62794349  0.40800141     0.32800
C767        C  0.31313637  0.67438882  0.32727236     0.01400
F768        F  0.36376946  0.62428129  0.29107089    -0.12900
F769        F  0.36767609  0.62958998  0.44619237    -0.13400
C770        C  0.31689727  0.71365089  0.32918042     0.16300
C771        C  0.29542648  0.73700260  0.30544493     0.25700
C772        C  0.26981053  0.72177997  0.27829105    -0.40500
C773        C  0.26275162  0.68220776  0.28065389     0.32700
C774        C  0.28515557  0.65899095  0.30367694     0.14400
F775        F  0.34278430  0.72946842  0.35286725    -0.12900
F776        F  0.23314448  0.66539926  0.26267803    -0.13400
F777        F  0.30160603  0.77469993  0.30755195    -0.15700
F778        F  0.27901284  0.62116067  0.30339646    -0.14300
F779        F  0.31700662  0.67331703  0.40770832    -0.14300
F780        F  0.41433930  0.58071145  0.32894649    -0.15700
C781        C  0.63271499  0.67149670  0.37087962     0.14400
C782        C  0.65999643  0.65662492  0.34610494     0.01300
C783        C  0.66561552  0.61739106  0.34507834     0.16300
C784        C  0.64386283  0.59340724  0.36792659     0.25700
C785        C  0.61635027  0.60826366  0.39251567    -0.40600
C786        C  0.61137727  0.64761530  0.39413474     0.32800
C787        C  0.68300291  0.68199643  0.32177905     0.01400
F788        F  0.69262811  0.60232478  0.32231551    -0.12900
F789        F  0.58482570  0.66304392  0.41716757    -0.13400
C790        C  0.70438997  0.71134318  0.33764161     0.16300
C791        C  0.72710680  0.73459935  0.31510662     0.25700
C792        C  0.73136347  0.72748037  0.27584843    -0.40500
C793        C  0.70662536  0.69999262  0.25992740     0.32700
C794        C  0.68339062  0.67728815  0.28261193     0.14400
F795        F  0.70363348  0.71743707  0.37537743    -0.12900
F796        F  0.70636628  0.69354691  0.22230192    -0.13400
F797        F  0.74308591  0.76490229  0.33224268    -0.15700
F798        F  0.66119911  0.65052305  0.26619011    -0.14300
F799        F  0.62593642  0.70916631  0.37181192    -0.14300
F800        F  0.65024873  0.55570199  0.36645392    -0.15700
C801        C  0.65901194  0.38614547  0.65769206     0.14400
C802        C  0.66471672  0.34819811  0.64857130     0.01300
C803        C  0.64720609  0.33327511  0.61632863     0.16300
C804        C  0.62314001  0.35577214  0.59412592     0.25700
C805        C  0.61621823  0.39375746  0.60383353    -0.40600
C806        C  0.63528382  0.40882265  0.63549894     0.32800
C807        C  0.68701989  0.32373005  0.67414992     0.01400
F808        F  0.65258171  0.29656810  0.60698844    -0.12900
F809        F  0.63123511  0.44549725  0.64531361    -0.13400
C810        C  0.66985955  0.30876228  0.70641583     0.16300
C811        C  0.69025339  0.28520206  0.73081274     0.25700
C812        C  0.72878162  0.27517724  0.72310271    -0.40500
C813        C  0.74657936  0.29394009  0.69227544     0.32700
C814        C  0.72561834  0.31668855  0.66750538     0.14400
F815        F  0.63306692  0.31733999  0.71454601    -0.12900
F816        F  0.78408723  0.28873181  0.68474051    -0.13400
F817        F  0.67206662  0.27391929  0.76258174    -0.15700
F818        F  0.74310183  0.33193258  0.63693899    -0.14300
F819        F  0.67612745  0.40112133  0.68856927    -0.14300
F820        F  0.60584110  0.33991395  0.56379989    -0.15700
C821        C  0.34635468  0.65343544  0.61282295     0.14400
C822        C  0.34718609  0.64614476  0.65175303     0.01300
C823        C  0.36958273  0.61643756  0.66554310     0.16300
C824        C  0.39148591  0.59483049  0.64097777     0.25700
C825        C  0.39138095  0.60249501  0.60196230    -0.40600
C826        C  0.36814715  0.63172852  0.58809844     0.32800
C827        C  0.32482566  0.66966020  0.67795904     0.01400
F828        F  0.37012719  0.60821520  0.70291713    -0.12900
F829        F  0.36614215  0.63920321  0.55064968    -0.13400
C830        C  0.28525831  0.67230341  0.67395779     0.16300
C831        C  0.26422710  0.69579319  0.69746378     0.25700
C832        C  0.28234685  0.71874704  0.72503212    -0.40500
C833        C  0.32198989  0.71265142  0.73113512     0.32700
C834        C  0.34286763  0.68921411  0.70727464     0.14400
F835        F  0.26682811  0.65209117  0.64703616    -0.12900
F836        F  0.34091703  0.72755425  0.76093650    -0.13400
F837        F  0.22607008  0.69770698  0.69153714    -0.15700
F838        F  0.38106472  0.68588789  0.71270641    -0.14300
F839        F  0.32499651  0.68214585  0.59882413    -0.14300
F840        F  0.41352019  0.56702544  0.65574059    -0.15700
C841        C  0.30796821  0.33723017  0.28544596     0.14400
C842        C  0.33003477  0.32155472  0.31431937     0.01300
C843        C  0.32992713  0.28242523  0.31956204     0.16300
C844        C  0.30609082  0.25947498  0.29788500     0.25700
C845        C  0.28036469  0.27524078  0.27119804    -0.40600
C846        C  0.28446199  0.31447529  0.26330503     0.32800
C847        C  0.35322137  0.34611732  0.33890591     0.01400
F848        F  0.35266359  0.26640366  0.34611979    -0.12900
F849        F  0.26751060  0.33135249  0.23336152    -0.13400
C850        C  0.34634882  0.34699346  0.37785169     0.16300
C851        C  0.36824596  0.37018245  0.40121053     0.25700
C852        C  0.39714614  0.39305437  0.38591112    -0.40500
C853        C  0.40348438  0.39271811  0.34679132     0.32700
C854        C  0.38182673  0.36923114  0.32352228     0.14400
F855        F  0.31801464  0.32577167  0.39314752    -0.12900
F856        F  0.43162532  0.41395419  0.33118696    -0.13400
F857        F  0.36071214  0.37079355  0.43869205    -0.15700
F858        F  0.38940955  0.36830588  0.28604862    -0.14300
F859        F  0.30878327  0.37497860  0.27888232    -0.14300
F860        F  0.30626511  0.22187507  0.30502902    -0.15700
loop_ 
_geom_bond_atom_site_label_1 
_geom_bond_atom_site_label_2 
_geom_bond_distance 
_geom_bond_site_symmetry_2 
_ccdc_geom_bond_type 
C1           N19   1.350       .  A
C1           C38   1.459       .  S
C1          C852   1.473       .  S
N2           N19   1.323       .  A
N2           N24   1.320       .  A
N2          Co39   2.080       .  S
C3           N28   1.339       .  A
C3           C41   1.466       .  S
C3           H48   1.080       .  S
H4           C45   1.081       .  S
C5           N29   1.342       .  A
C5            C9   1.466       .  S
C5           H34   1.081       .  S
Co6          N24   2.080       .  S
Co6          N14   2.085       .  S
Co6          N46   2.079       .  S
Co6          N22   2.090       .  S
Co6         Cl50   2.454       .  S
N7           C45   1.338       .  A
N7           N14   1.318       .  A
N7           Co8   2.076       .  S
Co8          N11   2.075       .  S
Co8          N28   2.084       .  S
Co8          N15   2.082       .  S
Co8         Cl50   2.442       .  S
C9           N47   1.348       .  A
C9          C825   1.481       .  S
N10          N17   1.320       .  A
N10          N40   1.326       .  A
N10         Co43   2.088       .  S
N11          N29   1.318       .  A
N11          N47   1.321       .  A
N12          C41   1.354       .  A
N12          N22   1.326       .  A
H13          C38   1.081       .  S
N14          N35   1.325       .  A
N15          N33   1.320       .  A
N15          N20   1.324       .  A
C16          N20   1.351       .  A
C16          C44   1.462       .  S
C16         C712   1.479       .  S
N17          C32   1.341       .  A
N17         Co39   2.091       .  S
C18          N46   1.339       .  A
C18          C21   1.465       .  S
C18          H52   1.080       .  S
C21          N42   1.352       .  A
C21         C745   1.486       .  S
N22          N28   1.318       .  A
N23          C49   1.340       .  A
N23          N25   1.319       .  A
N23         Co39   2.080       .  S
N24          C38   1.339       .  A
N25          N53   1.324       .  A
N25         Co43   2.085       .  S
H26          C49   1.081       .  S
H27          C44   1.081       .  S
N29         Co43   2.083       .  S
N30          N42   1.323       .  A
N30          N46   1.319       .  A
N30         Co39   2.085       .  S
C31          N35   1.352       .  A
C31          C45   1.459       .  S
C31         C732   1.478       .  S
C32          C51   1.464       .  S
C32          H36   1.081       .  S
N33          C44   1.338       .  A
N33         Co43   2.082       .  S
C37          N53   1.351       .  A
C37          C49   1.462       .  S
C37         C785   1.480       .  S
Co39        Cl50   2.447       .  S
N40          C51   1.352       .  A
C41         C805   1.493       .  S
Co43        Cl50   2.452       .  S
C51         C765   1.486       .  S
C54          N72   1.348       .  A
C54          C91   1.467       .  S
C54         C652   1.482       .  S
N55          N72   1.323       .  A
N55          N77   1.319       .  A
N55         Co92   2.076       .  S
C56          N81   1.341       .  A
C56          C94   1.463       .  S
C56         H101   1.081       .  S
H57          C98   1.081       .  S
C58          N82   1.337       .  A
C58          C62   1.462       .  S
C58          H87   1.081       .  S
Co59         N77   2.092       .  S
Co59         N67   2.093   1_455  S
Co59         N99   2.086   1_556  S
Co59         N75   2.084   1_456  S
Co59       Cl103   2.448       .  S
N60          C98   1.338       .  A
N60          N67   1.320       .  A
N60         Co61   2.081       .  S
Co61         N64   2.081       .  S
Co61         N81   2.080   1_556  S
Co61         N68   2.093   1_556  S
Co61       Cl103   2.453   1_655  S
C62         N100   1.351       .  A
C62         C632   1.479       .  S
N63          N70   1.319       .  A
N63          N93   1.323       .  A
N63         Co96   2.084       .  S
N64          N82   1.318       .  A
N64         N100   1.325       .  A
N65          C94   1.350       .  A
N65          N75   1.323       .  A
H66          C91   1.081       .  S
N67          N88   1.326       .  A
N68          N86   1.319       .  A
N68          N73   1.326       .  A
C69          N73   1.355       .  A
C69          C97   1.464       .  S
C69         C592   1.492       .  S
N70          C85   1.341       .  A
N70         Co92   2.081       .  S
C71          N99   1.340       .  A
C71          C74   1.461       .  S
C71         H105   1.081       .  S
C74          N95   1.351       .  A
C74         C545   1.478       .  S
N75          N81   1.319       .  A
N76         C102   1.341       .  A
N76          N78   1.319       .  A
N76         Co92   2.083   1_554  S
N77          C91   1.342       .  A
N78         N106   1.322       .  A
N78         Co96   2.077   1_554  S
H79         C102   1.081       .  S
H80          C97   1.080       .  S
N82         Co96   2.078   1_655  S
N83          N95   1.325       .  A
N83          N99   1.320       .  A
N83         Co92   2.084   1_554  S
C84          N88   1.354       .  A
C84          C98   1.461       .  S
C84         C692   1.486       .  S
C85         C104   1.463       .  S
C85          H89   1.081       .  S
N86          C97   1.340       .  A
N86         Co96   2.084   1_654  S
C90         N106   1.348       .  A
C90         C102   1.462       .  S
C90         C565   1.475       .  S
Co92       Cl103   2.452       .  S
N93         C104   1.351       .  A
C94         C672   1.482       .  S
Co96       Cl103   2.444       .  S
C104        C605   1.482       .  S
C107        C505   1.566       .  S
C107        C532   1.565       .  S
C107        C685   1.567       .  S
C107        C812   1.567       .  S
C108        N126   1.352       .  A
C108        C145   1.469       .  S
C108        C445   1.494       .  S
N109        N126   1.325       .  A
N109        N131   1.319       .  A
N109       Co146   2.089       .  S
C110        N135   1.338       .  A
C110        C148   1.466       .  S
C110        H155   1.079       .  S
H111        C152   1.080       .  S
C112        N136   1.343       .  A
C112        C116   1.469       .  S
C112        H141   1.080       .  S
Co113       N131   2.093   1_554  S
Co113       N121   2.089   1_554  S
Co113       N153   2.091       .  S
Co113       N129   2.091       .  S
Co113      Cl157   2.453   1_545  S
N114        C152   1.338       .  A
N114        N121   1.320       .  A
N114       Co115   2.081   1_546  S
Co115       N118   2.085   1_554  S
Co115       N135   2.079   1_565  S
Co115       N122   2.095       .  S
Co115      Cl157   2.452       .  S
C116        N154   1.352       .  A
C116        C432   1.493       .  S
N117        N124   1.320       .  A
N117        N147   1.322       .  A
N117       Co150   2.079       .  S
N118        N136   1.318       .  A
N118        N154   1.325       .  A
N119        C148   1.354       .  A
N119        N129   1.325       .  A
H120        C145   1.080       .  S
N121        N142   1.325       .  A
N122        N140   1.318       .  A
N122        N127   1.326       .  A
C123        N127   1.356       .  A
C123        C151   1.466       .  S
C123        C465   1.494       .  S
N124        C139   1.343       .  A
N124       Co146   2.094   1_565  S
C125        N153   1.342       .  A
C125        C128   1.468       .  S
C125        H159   1.080       .  S
C128        N149   1.356       .  A
C128        C385   1.499       .  S
N129        N135   1.319       .  A
N130        C156   1.344       .  A
N130        N132   1.320       .  A
N130       Co146   2.092   1_564  S
N131        C145   1.343       .  A
N132        N160   1.322       .  A
N132       Co150   2.080   1_554  S
H133        C156   1.081       .  S
H134        C151   1.079       .  S
N136       Co150   2.089       .  S
N137        N149   1.327       .  A
N137        N153   1.320       .  A
N137       Co146   2.103   1_554  S
C138        N142   1.352       .  A
C138        C152   1.463       .  S
C138        C525   1.483       .  S
C139        C158   1.465       .  S
C139        H143   1.081       .  S
N140        C151   1.338       .  A
N140       Co150   2.080   1_554  S
C144        N160   1.349       .  A
C144        C156   1.467       .  S
C144        C412   1.485       .  S
Co146      Cl157   2.456   1_546  S
N147        C158   1.349       .  A
C148        C365   1.491       .  S
Co150      Cl157   2.447   1_556  S
C158        C485   1.482       .  S
C161        C345   1.563       .  S
C161        C492   1.566       .  S
C161        C612   1.566       .  S
C161        C832   1.562       .  S
C162        N180   1.349       .  A
C162        C199   1.465       .  S
C162        C325   1.478       .  S
N163        N180   1.324       .  A
N163        N185   1.319       .  A
N163       Co200   2.078   1_655  S
C164        N189   1.342       .  A
C164        C202   1.464       .  S
C164        H209   1.081       .  S
H165        C206   1.082       .  S
C166        N190   1.336       .  A
C166        C170   1.459       .  S
C166        H195   1.081       .  S
Co167       N185   2.086   1_565  S
Co167       N175   2.083   1_565  S
Co167       N207   2.081       .  S
Co167       N183   2.075       .  S
Co167      Cl211   2.448   1_655  S
N168        C206   1.341       .  A
N168        N175   1.320       .  A
N168       Co169   2.083   1_645  S
Co169       N172   2.085   1_565  S
Co169       N189   2.088   1_455  S
Co169       N176   2.084       .  S
Co169      Cl211   2.448       .  S
C170        N208   1.351       .  A
C170        C225   1.475       .  S
N171        N178   1.318       .  A
N171        N201   1.324       .  A
N171       Co204   2.085       .  S
N172        N190   1.320       .  A
N172        N208   1.325       .  A
N173        C202   1.348       .  A
N173        N183   1.321       .  A
H174        C199   1.081       .  S
N175        N196   1.324       .  A
N176        N194   1.320       .  A
N176        N181   1.324       .  A
C177        N181   1.351       .  A
C177        C205   1.461       .  S
C177        C352   1.478       .  S
N178        C193   1.337       .  A
N178       Co200   2.071       .  S
C179        N207   1.340       .  A
C179        C182   1.467       .  S
C179        H213   1.080       .  S
C182        N203   1.350       .  A
C182        C312   1.486       .  S
N183        N189   1.320       .  A
N184        C210   1.337       .  A
N184        N186   1.317       .  A
N184       Co200   2.074   1_565  S
N185        C199   1.340       .  A
N186        N214   1.324       .  A
N186       Co204   2.086   1_565  S
H187        C210   1.080       .  S
H188        C205   1.081       .  S
N190       Co204   2.076       .  S
N191        N203   1.322       .  A
N191        N207   1.317       .  A
N191       Co200   2.077   1_665  S
C192        N196   1.350       .  A
C192        C206   1.459       .  S
C192        C512   1.473       .  S
C193        C212   1.459       .  S
C193        H197   1.081       .  S
N194        C205   1.338       .  A
N194       Co204   2.079   1_565  S
C198        N214   1.354       .  A
C198        C210   1.463       .  S
C198        C285   1.487       .  S
Co200      Cl211   2.445   1_545  S
N201        C212   1.352       .  A
C202        C272   1.476       .  S
Co204      Cl211   2.447   1_545  S
C212        C245   1.478       .  S
C215        C305   1.565       .  S
C215        C472   1.570       .  S
C215        C585   1.569       .  S
C215        C792   1.566       .  S
C216        C252   1.565       .  S
C216        C392   1.573       .  S
C216        C552   1.566       .  S
C216        C845   1.563       .  S
C217        C332   1.567       .  S
C217        C372   1.565       .  S
C217        C665   1.565       .  S
C217        C752   1.563       .  S
C218        C292   1.563       .  S
C218        C405   1.568       .  S
C218        C572   1.566       .  S
C218        C772   1.571       .  S
C219        C232   1.563       .  S
C219        C452   1.571       .  S
C219        C645   1.566       .  S
C219        C725   1.566       .  S
C220        C265   1.564       .  S
C220        C425   1.568       .  S
C220        C625   1.565       .  S
C220        C705   1.564       .  S
C221        C222   1.406       .  A
C221        C226   1.401       .  A
C221        F239   1.358       .  S
C222        C227   1.477       .  S
C222        C223   1.402       .  A
C223        C224   1.392       .  A
C223        F228   1.358       .  S
C224        C225   1.407       .  A
C224        F240   1.357       .  S
C225        C226   1.407       .  A
C226        F229   1.358       .  S
C227        C230   1.398       .  A
C227        C234   1.400       .  A
C230        C231   1.397       .  A
C230        F235   1.358       .  S
C231        C232   1.424       .  A
C231        F237   1.357       .  S
C232        C233   1.424       .  A
C233        C234   1.394       .  A
C233        F236   1.355       .  S
C234        F238   1.359       .  S
C241        C242   1.403       .  A
C241        C246   1.398       .  A
C241        F259   1.358       .  S
C242        C247   1.475       .  S
C242        C243   1.403       .  A
C243        C244   1.397       .  A
C243        F248   1.358       .  S
C244        C245   1.408       .  A
C244        F260   1.358       .  S
C245        C246   1.409       .  A
C246        F249   1.357       .  S
C247        C250   1.396       .  A
C247        C254   1.399       .  A
C250        C251   1.396       .  A
C250        F255   1.359       .  S
C251        C252   1.428       .  A
C251        F257   1.355       .  S
C252        C253   1.422       .  A
C253        C254   1.398       .  A
C253        F256   1.357       .  S
C254        F258   1.358       .  S
C261        C262   1.400       .  A
C261        C266   1.397       .  A
C261        F279   1.358       .  S
C262        C267   1.480       .  S
C262        C263   1.400       .  A
C263        C264   1.398       .  A
C263        F268   1.358       .  S
C264        C265   1.425       .  A
C264        F280   1.356       .  S
C265        C266   1.421       .  A
C266        F269   1.356       .  S
C267        C270   1.407       .  A
C267        C274   1.404       .  A
C270        C271   1.400       .  A
C270        F275   1.358       .  S
C271        C272   1.405       .  A
C271        F277   1.358       .  S
C272        C273   1.409       .  A
C273        C274   1.396       .  A
C273        F276   1.358       .  S
C274        F278   1.358       .  S
C281        C282   1.402       .  A
C281        C286   1.398       .  A
C281        F299   1.358       .  S
C282        C287   1.477       .  S
C282        C283   1.401       .  A
C283        C284   1.398       .  A
C283        F288   1.358       .  S
C284        C285   1.413       .  A
C284        F300   1.356       .  S
C285        C286   1.411       .  A
C286        F289   1.357       .  S
C287        C290   1.398       .  A
C287        C294   1.398       .  A
C290        C291   1.398       .  A
C290        F295   1.358       .  S
C291        C292   1.422       .  A
C291        F297   1.357       .  S
C292        C293   1.426       .  A
C293        C294   1.396       .  A
C293        F296   1.356       .  S
C294        F298   1.358       .  S
C301        C302   1.400       .  A
C301        C306   1.399       .  A
C301        F319   1.358       .  S
C302        C307   1.477       .  S
C302        C303   1.397       .  A
C303        C304   1.397       .  A
C303        F308   1.358       .  S
C304        C305   1.424       .  A
C304        F320   1.356       .  S
C305        C306   1.424       .  A
C306        F309   1.356       .  S
C307        C310   1.403       .  A
C307        C314   1.401       .  A
C310        C311   1.399       .  A
C310        F315   1.358       .  S
C311        C312   1.411       .  A
C311        F317   1.356       .  S
C312        C313   1.412       .  A
C313        C314   1.397       .  A
C313        F316   1.358       .  S
C314        F318   1.358       .  S
C321        C322   1.405       .  A
C321        C326   1.396       .  A
C321        F339   1.358       .  S
C322        C327   1.484       .  S
C322        C323   1.407       .  A
C323        C324   1.402       .  A
C323        F328   1.358       .  S
C324        C325   1.408       .  A
C324        F340   1.358       .  S
C325        C326   1.406       .  A
C326        F329   1.357       .  S
C327        C330   1.400       .  A
C327        C334   1.402       .  A
C330        C331   1.394       .  A
C330        F335   1.358       .  S
C331        C332   1.425       .  A
C331        F337   1.356       .  S
C332        C333   1.422       .  A
C333        C334   1.402       .  A
C333        F336   1.357       .  S
C334        F338   1.358       .  S
C341        C342   1.401       .  A
C341        C346   1.398       .  A
C341        F359   1.358       .  S
C342        C347   1.482       .  S
C342        C343   1.401       .  A
C343        C344   1.394       .  A
C343        F348   1.358       .  S
C344        C345   1.424       .  A
C344        F360   1.356       .  S
C345        C346   1.422       .  A
C346        F349   1.357       .  S
C347        C350   1.405       .  A
C347        C354   1.406       .  A
C350        C351   1.396       .  A
C350        F355   1.358       .  S
C351        C352   1.408       .  A
C351        F357   1.357       .  S
C352        C353   1.406       .  A
C353        C354   1.400       .  A
C353        F356   1.358       .  S
C354        F358   1.358       .  S
C361        C362   1.401       .  A
C361        C366   1.401       .  A
C361        F379   1.358       .  S
C362        C367   1.476       .  S
C362        C363   1.399       .  A
C363        C364   1.398       .  A
C363        F368   1.358       .  S
C364        C365   1.414       .  A
C364        F380   1.355       .  S
C365        C366   1.413       .  A
C366        F369   1.358       .  S
C367        C370   1.397       .  A
C367        C374   1.398       .  A
C370        C371   1.398       .  A
C370        F375   1.358       .  S
C371        C372   1.423       .  A
C371        F377   1.356       .  S
C372        C373   1.426       .  A
C373        C374   1.400       .  A
C373        F376   1.356       .  S
C374        F378   1.358       .  S
C381        C382   1.407       .  A
C381        C386   1.404       .  A
C381        F399   1.358       .  S
C382        C387   1.495       .  S
C382        C383   1.407       .  A
C383        C384   1.403       .  A
C383        F388   1.358       .  S
C384        C385   1.412       .  A
C384        F400   1.357       .  S
C385        C386   1.413       .  A
C386        F389   1.356       .  S
C387        C390   1.403       .  A
C387        C394   1.403       .  A
C390        C391   1.401       .  A
C390        F395   1.358       .  S
C391        C392   1.422       .  A
C391        F397   1.357       .  S
C392        C393   1.427       .  A
C393        C394   1.403       .  A
C393        F396   1.355       .  S
C394        F398   1.358       .  S
C401        C402   1.403       .  A
C401        C406   1.401       .  A
C401        F419   1.358       .  S
C402        C407   1.489       .  S
C402        C403   1.401       .  A
C403        C404   1.397       .  A
C403        F408   1.358       .  S
C404        C405   1.423       .  A
C404        F420   1.356       .  S
C405        C406   1.425       .  A
C406        F409   1.355       .  S
C407        C410   1.406       .  A
C407        C414   1.408       .  A
C410        C411   1.399       .  A
C410        F415   1.358       .  S
C411        C412   1.410       .  A
C411        F417   1.358       .  S
C412        C413   1.407       .  A
C413        C414   1.401       .  A
C413        F416   1.357       .  S
C414        F418   1.358       .  S
C421        C422   1.400       .  A
C421        C426   1.400       .  A
C421        F439   1.358       .  S
C422        C427   1.486       .  S
C422        C423   1.401       .  A
C423        C424   1.401       .  A
C423        F428   1.358       .  S
C424        C425   1.425       .  A
C424        F440   1.356       .  S
C425        C426   1.422       .  A
C426        F429   1.357       .  S
C427        C430   1.405       .  A
C427        C434   1.404       .  A
C430        C431   1.402       .  A
C430        F435   1.358       .  S
C431        C432   1.411       .  A
C431        F437   1.356       .  S
C432        C433   1.413       .  A
C433        C434   1.401       .  A
C433        F436   1.358       .  S
C434        F438   1.358       .  S
C441        C442   1.403       .  A
C441        C446   1.403       .  A
C441        F459   1.358       .  S
C442        C447   1.484       .  S
C442        C443   1.403       .  A
C443        C444   1.401       .  A
C443        F448   1.358       .  S
C444        C445   1.413       .  A
C444        F460   1.358       .  S
C445        C446   1.412       .  A
C446        F449   1.356       .  S
C447        C450   1.399       .  A
C447        C454   1.399       .  A
C450        C451   1.403       .  A
C450        F455   1.358       .  S
C451        C452   1.425       .  A
C451        F457   1.357       .  S
C452        C453   1.426       .  A
C453        C454   1.399       .  A
C453        F456   1.355       .  S
C454        F458   1.358       .  S
C461        C462   1.401       .  A
C461        C466   1.400       .  A
C461        F479   1.358       .  S
C462        C467   1.483       .  S
C462        C463   1.403       .  A
C463        C464   1.402       .  A
C463        F468   1.358       .  S
C464        C465   1.412       .  A
C464        F480   1.358       .  S
C465        C466   1.414       .  A
C466        F469   1.355       .  S
C467        C470   1.400       .  A
C467        C474   1.397       .  A
C470        C471   1.401       .  A
C470        F475   1.358       .  S
C471        C472   1.426       .  A
C471        F477   1.355       .  S
C472        C473   1.424       .  A
C473        C474   1.400       .  A
C473        F476   1.356       .  S
C474        F478   1.358       .  S
C481        C482   1.402       .  A
C481        C486   1.397       .  A
C481        F499   1.358       .  S
C482        C487   1.479       .  S
C482        C483   1.405       .  A
C483        C484   1.402       .  A
C483        F488   1.358       .  S
C484        C485   1.409       .  A
C484        F500   1.357       .  S
C485        C486   1.410       .  A
C486        F489   1.358       .  S
C487        C490   1.400       .  A
C487        C494   1.396       .  A
C490        C491   1.400       .  A
C490        F495   1.358       .  S
C491        C492   1.424       .  A
C491        F497   1.355       .  S
C492        C493   1.425       .  A
C493        C494   1.398       .  A
C493        F496   1.356       .  S
C494        F498   1.358       .  S
C501        C502   1.398       .  A
C501        C506   1.398       .  A
C501        F519   1.358       .  S
C502        C507   1.479       .  S
C502        C503   1.399       .  A
C503        C504   1.398       .  A
C503        F508   1.358       .  S
C504        C505   1.425       .  A
C504        F520   1.355       .  S
C505        C506   1.423       .  A
C506        F509   1.355       .  S
C507        C510   1.405       .  A
C507        C514   1.406       .  A
C510        C511   1.398       .  A
C510        F515   1.358       .  S
C511        C512   1.407       .  A
C511        F517   1.358       .  S
C512        C513   1.404       .  A
C513        C514   1.399       .  A
C513        F516   1.358       .  S
C514        F518   1.358       .  S
C521        C522   1.404       .  A
C521        C526   1.397       .  A
C521        F539   1.358       .  S
C522        C527   1.483       .  S
C522        C523   1.406       .  A
C523        C524   1.400       .  A
C523        F528   1.358       .  S
C524        C525   1.409       .  A
C524        F540   1.358       .  S
C525        C526   1.410       .  A
C526        F529   1.356       .  S
C527        C530   1.398       .  A
C527        C534   1.401       .  A
C530        C531   1.397       .  A
C530        F535   1.358       .  S
C531        C532   1.423       .  A
C531        F537   1.355       .  S
C532        C533   1.425       .  A
C533        C534   1.398       .  A
C533        F536   1.356       .  S
C534        F538   1.358       .  S
C541        C542   1.405       .  A
C541        C546   1.400       .  A
C541        F559   1.358       .  S
C542        C547   1.481       .  S
C542        C543   1.405       .  A
C543        C544   1.399       .  A
C543        F548   1.358       .  S
C544        C545   1.407       .  A
C544        F560   1.358       .  S
C545        C546   1.407       .  A
C546        F549   1.358       .  S
C547        C550   1.401       .  A
C547        C554   1.398       .  A
C550        C551   1.400       .  A
C550        F555   1.358       .  S
C551        C552   1.422       .  A
C551        F557   1.355       .  S
C552        C553   1.425       .  A
C553        C554   1.397       .  A
C553        F556   1.356       .  S
C554        F558   1.358       .  S
C561        C562   1.404       .  A
C561        C566   1.397       .  A
C561        F579   1.358       .  S
C562        C567   1.480       .  S
C562        C563   1.406       .  A
C563        C564   1.399       .  A
C563        F568   1.358       .  S
C564        C565   1.405       .  A
C564        F580   1.358       .  S
C565        C566   1.408       .  A
C566        F569   1.358       .  S
C567        C570   1.399       .  A
C567        C574   1.400       .  A
C570        C571   1.397       .  A
C570        F575   1.358       .  S
C571        C572   1.426       .  A
C571        F577   1.356       .  S
C572        C573   1.421       .  A
C573        C574   1.399       .  A
C573        F576   1.357       .  S
C574        F578   1.358       .  S
C581        C582   1.402       .  A
C581        C586   1.401       .  A
C581        F599   1.358       .  S
C582        C587   1.489       .  S
C582        C583   1.400       .  A
C583        C584   1.400       .  A
C583        F588   1.358       .  S
C584        C585   1.426       .  A
C584        F600   1.355       .  S
C585        C586   1.422       .  A
C586        F589   1.357       .  S
C587        C590   1.405       .  A
C587        C594   1.406       .  A
C590        C591   1.401       .  A
C590        F595   1.358       .  S
C591        C592   1.412       .  A
C591        F597   1.356       .  S
C592        C593   1.410       .  A
C593        C594   1.401       .  A
C593        F596   1.358       .  S
C594        F598   1.358       .  S
C601        C602   1.403       .  A
C601        C606   1.395       .  A
C601        F619   1.358       .  S
C602        C607   1.480       .  S
C602        C603   1.405       .  A
C603        C604   1.402       .  A
C603        F608   1.358       .  S
C604        C605   1.410       .  A
C604        F620   1.357       .  S
C605        C606   1.409       .  A
C606        F609   1.358       .  S
C607        C610   1.399       .  A
C607        C614   1.398       .  A
C610        C611   1.399       .  A
C610        F615   1.358       .  S
C611        C612   1.423       .  A
C611        F617   1.357       .  S
C612        C613   1.427       .  A
C613        C614   1.396       .  A
C613        F616   1.355       .  S
C614        F618   1.359       .  S
C621        C622   1.398       .  A
C621        C626   1.398       .  A
C621        F639   1.358       .  S
C622        C627   1.477       .  S
C622        C623   1.398       .  A
C623        C624   1.396       .  A
C623        F628   1.359       .  S
C624        C625   1.426       .  A
C624        F640   1.355       .  S
C625        C626   1.423       .  A
C626        F629   1.357       .  S
C627        C630   1.405       .  A
C627        C634   1.402       .  A
C630        C631   1.402       .  A
C630        F635   1.358       .  S
C631        C632   1.409       .  A
C631        F637   1.358       .  S
C632        C633   1.408       .  A
C633        C634   1.394       .  A
C633        F636   1.356       .  S
C634        F638   1.358       .  S
C641        C642   1.397       .  A
C641        C646   1.393       .  A
C641        F659   1.359       .  S
C642        C647   1.481       .  S
C642        C643   1.401       .  A
C643        C644   1.402       .  A
C643        F648   1.358       .  S
C644        C645   1.422       .  A
C644        F660   1.358       .  S
C645        C646   1.427       .  A
C646        F649   1.356       .  S
C647        C650   1.405       .  A
C647        C654   1.404       .  A
C650        C651   1.397       .  A
C650        F655   1.358       .  S
C651        C652   1.407       .  A
C651        F657   1.356       .  S
C652        C653   1.410       .  A
C653        C654   1.401       .  A
C653        F656   1.358       .  S
C654        F658   1.358       .  S
C661        C662   1.399       .  A
C661        C666   1.397       .  A
C661        F679   1.358       .  S
C662        C667   1.479       .  S
C662        C663   1.398       .  A
C663        C664   1.397       .  A
C663        F668   1.358       .  S
C664        C665   1.424       .  A
C664        F680   1.356       .  S
C665        C666   1.425       .  A
C666        F669   1.355       .  S
C667        C670   1.403       .  A
C667        C674   1.404       .  A
C670        C671   1.396       .  A
C670        F675   1.358       .  S
C671        C672   1.410       .  A
C671        F677   1.358       .  S
C672        C673   1.409       .  A
C673        C674   1.400       .  A
C673        F676   1.357       .  S
C674        F678   1.358       .  S
C681        C682   1.399       .  A
C681        C686   1.399       .  A
C681        F699   1.358       .  S
C682        C687   1.481       .  S
C682        C683   1.399       .  A
C683        C684   1.399       .  A
C683        F688   1.358       .  S
C684        C685   1.426       .  A
C684        F700   1.356       .  S
C685        C686   1.422       .  A
C686        F689   1.355       .  S
C687        C690   1.405       .  A
C687        C694   1.403       .  A
C690        C691   1.400       .  A
C690        F695   1.358       .  S
C691        C692   1.410       .  A
C691        F697   1.358       .  S
C692        C693   1.411       .  A
C693        C694   1.399       .  A
C693        F696   1.357       .  S
C694        F698   1.358       .  S
C701        C702   1.396       .  A
C701        C706   1.396       .  A
C701        F719   1.358       .  S
C702        C707   1.474       .  S
C702        C703   1.398       .  A
C703        C704   1.397       .  A
C703        F708   1.358       .  S
C704        C705   1.425       .  A
C704        F720   1.355       .  S
C705        C706   1.424       .  A
C706        F709   1.356       .  S
C707        C710   1.403       .  A
C707        C714   1.401       .  A
C710        C711   1.400       .  A
C710        F715   1.358       .  S
C711        C712   1.409       .  A
C711        F717   1.358       .  S
C712        C713   1.409       .  A
C713        C714   1.396       .  A
C713        F716   1.357       .  S
C714        F718   1.358       .  S
C721        C722   1.398       .  A
C721        C726   1.397       .  A
C721        F739   1.358       .  S
C722        C727   1.481       .  S
C722        C723   1.401       .  A
C723        C724   1.399       .  A
C723        F728   1.358       .  S
C724        C725   1.423       .  A
C724        F740   1.355       .  S
C725        C726   1.425       .  A
C726        F729   1.356       .  S
C727        C730   1.405       .  A
C727        C734   1.405       .  A
C730        C731   1.399       .  A
C730        F735   1.358       .  S
C731        C732   1.408       .  A
C731        F737   1.358       .  S
C732        C733   1.407       .  A
C733        C734   1.398       .  A
C733        F736   1.358       .  S
C734        F738   1.358       .  S
C741        C742   1.402       .  A
C741        C746   1.398       .  A
C741        F759   1.358       .  S
C742        C747   1.474       .  S
C742        C743   1.400       .  A
C743        C744   1.397       .  A
C743        F748   1.358       .  S
C744        C745   1.412       .  A
C744        F760   1.357       .  S
C745        C746   1.411       .  A
C746        F749   1.356       .  S
C747        C750   1.399       .  A
C747        C754   1.396       .  A
C750        C751   1.398       .  A
C750        F755   1.358       .  S
C751        C752   1.425       .  A
C751        F757   1.356       .  S
C752        C753   1.423       .  A
C753        C754   1.394       .  A
C753        F756   1.356       .  S
C754        F758   1.358       .  S
C761        C762   1.405       .  A
C761        C766   1.403       .  A
C761        F779   1.358       .  S
C762        C767   1.485       .  S
C762        C763   1.405       .  A
C763        C764   1.400       .  A
C763        F768   1.358       .  S
C764        C765   1.409       .  A
C764        F780   1.357       .  S
C765        C766   1.409       .  A
C766        F769   1.358       .  S
C767        C770   1.400       .  A
C767        C774   1.400       .  A
C770        C771   1.400       .  A
C770        F775   1.358       .  S
C771        C772   1.423       .  A
C771        F777   1.356       .  S
C772        C773   1.427       .  A
C773        C774   1.400       .  A
C773        F776   1.355       .  S
C774        F778   1.358       .  S
C781        C782   1.406       .  A
C781        C786   1.398       .  A
C781        F799   1.358       .  S
C782        C787   1.484       .  S
C782        C783   1.406       .  A
C783        C784   1.399       .  A
C783        F788   1.358       .  S
C784        C785   1.407       .  A
C784        F800   1.358       .  S
C785        C786   1.408       .  A
C786        F789   1.358       .  S
C787        C790   1.400       .  A
C787        C794   1.401       .  A
C790        C791   1.396       .  A
C790        F795   1.358       .  S
C791        C792   1.426       .  A
C791        F797   1.356       .  S
C792        C793   1.421       .  A
C793        C794   1.399       .  A
C793        F796   1.356       .  S
C794        F798   1.358       .  S
C801        C802   1.400       .  A
C801        C806   1.399       .  A
C801        F819   1.358       .  S
C802        C807   1.478       .  S
C802        C803   1.403       .  A
C803        C804   1.403       .  A
C803        F808   1.358       .  S
C804        C805   1.413       .  A
C804        F820   1.358       .  S
C805        C806   1.413       .  A
C806        F809   1.355       .  S
C807        C810   1.398       .  A
C807        C814   1.398       .  A
C810        C811   1.399       .  A
C810        F815   1.358       .  S
C811        C812   1.425       .  A
C811        F817   1.356       .  S
C812        C813   1.424       .  A
C813        C814   1.400       .  A
C813        F816   1.356       .  S
C814        F818   1.358       .  S
C821        C822   1.406       .  A
C821        C826   1.399       .  A
C821        F839   1.358       .  S
C822        C827   1.479       .  S
C822        C823   1.402       .  A
C823        C824   1.396       .  A
C823        F828   1.358       .  S
C824        C825   1.411       .  A
C824        F840   1.358       .  S
C825        C826   1.407       .  A
C826        F829   1.357       .  S
C827        C830   1.398       .  A
C827        C834   1.401       .  A
C830        C831   1.394       .  A
C830        F835   1.358       .  S
C831        C832   1.423       .  A
C831        F837   1.356       .  S
C832        C833   1.423       .  A
C833        C834   1.398       .  A
C833        F836   1.356       .  S
C834        F838   1.358       .  S
C841        C842   1.398       .  A
C841        C846   1.395       .  A
C841        F859   1.358       .  S
C842        C847   1.476       .  S
C842        C843   1.400       .  A
C843        C844   1.397       .  A
C843        F848   1.358       .  S
C844        C845   1.422       .  A
C844        F860   1.357       .  S
C845        C846   1.425       .  A
C846        F849   1.356       .  S
C847        C850   1.405       .  A
C847        C854   1.404       .  A
C850        C851   1.397       .  A
C850        F855   1.358       .  S
C851        C852   1.405       .  A
C851        F857   1.358       .  S
C852        C853   1.407       .  A
C853        C854   1.397       .  A
C853        F856   1.358       .  S
C854        F858   1.358       .  S
