geometry optimzed in LAMMPS
_audit_creation_date              2020-11-30 
_audit_creation_method            'lammps2cif' 
_symmetry_space_group_name_H-M    'P1' 
_symmetry_Int_Tables_number       1 
_symmetry_cell_setting            triclinic 
loop_ 
_symmetry_equiv_pos_as_xyz 
  x,y,z 
_cell_length_a                    27.77185585 
_cell_length_b                    26.747660017215257 
_cell_length_c                    27.447083261098978 
_cell_angle_alpha                 90.30941582019886 
_cell_angle_beta                  89.69990329573449 
_cell_angle_gamma                 89.4019082770408 
loop_ 
_atom_site_label 
_atom_site_type_symbol 
_atom_site_fract_x 
_atom_site_fract_y 
_atom_site_fract_z 
_atom_site_charge 
In1        In  0.25994311  0.99741711  0.50591382     1.36900
C2          C  0.21163315  0.08590687  0.50847641     0.77500
O3          O  0.26103938  0.99046188  0.59047167    -0.60900
O4          O  0.32612917  0.99583450  0.55111425    -0.51800
C5          C  0.21298833  0.90840582  0.50462500     0.70200
O6          O  0.19389147  0.95091438  0.51201821    -0.46700
C7          C  0.30830472  0.00722112  0.41989190     0.74900
O8          O  0.21232154  0.05658512  0.47234837    -0.58500
O9          O  0.32273342  0.02141032  0.46153613    -0.48600
O10         O  0.23927510  0.07213017  0.54197558    -0.55000
C11         C  0.30630363  0.99284343  0.59293477     0.85100
O12         O  0.25811084  0.91066994  0.49918062    -0.56900
O13         O  0.26733508  0.98786465  0.42177160    -0.60200
In14       In  0.50140185  0.25085529  0.98899460     1.36900
C15         C  0.41418499  0.29603753  0.98199551     0.77500
O16         O  0.48576477  0.25017574  0.90580978    -0.60900
O17         O  0.52580836  0.19066855  0.93535921    -0.51800
C18         C  0.58420873  0.30538354  0.98750392     0.70200
O19         O  0.54111643  0.32222002  0.98660558    -0.46700
C20         C  0.49472351  0.20523850  0.08026674     0.74900
O21         O  0.44970491  0.31360099  0.00552650    -0.58500
O22         O  0.46584369  0.19888846  0.04523354    -0.48600
O23         O  0.42192603  0.25290276  0.96486134    -0.55000
C24         C  0.50571773  0.20858335  0.89768898     0.85100
O25         O  0.58566079  0.25822134  0.98756818    -0.56900
O26         O  0.52737328  0.23507874  0.06838897    -0.60200
In27       In  0.00211915  0.49908124  0.24612691     1.36900
C28         C  0.99341090  0.41228887  0.29474489     0.77500
O29         O  0.92201161  0.52177748  0.24270640    -0.60900
O30         O  0.95390176  0.48567959  0.18225408    -0.51800
C31         C  0.00293310  0.58493111  0.29875291     0.70200
O32         O  0.00084271  0.54111019  0.31623222    -0.46700
C33         C  0.08670281  0.50128413  0.19383118     0.74900
O34         O  0.97178550  0.42024791  0.25521313    -0.58500
O35         O  0.05841714  0.53754610  0.20054311    -0.48600
O36         O  0.02142557  0.44732262  0.30725818    -0.55000
C37         C  0.91706427  0.50819575  0.19910185     0.85100
O38         O  0.00455026  0.58512481  0.25294942    -0.56900
O39         O  0.07314436  0.46293030  0.21622827    -0.60200
C40         C  0.36937928  0.32871111  0.97170985    -0.02500
C41         C  0.38427815  0.65287179  0.98282717    -0.02500
C42         C  0.13163805  0.48262324  0.83513078    -0.02500
C43         C  0.12372633  0.50236640  0.15198369    -0.02500
In44       In  0.50570277  0.74563300  0.99861373     1.36900
C45         C  0.50058186  0.79781766  0.91481264     0.77500
O46         O  0.56306441  0.68930460  0.97873774    -0.60900
O47         O  0.58469101  0.74972640  0.02306971    -0.51800
C48         C  0.49776564  0.79100966  0.08641775     0.70200
O49         O  0.47215492  0.75414951  0.07521073    -0.46700
C50         C  0.42422867  0.69109172  0.99277081     0.74900
O51         O  0.48600579  0.81278735  0.95642649    -0.58500
O52         O  0.46059809  0.67992563  0.01883881    -0.48600
O53         O  0.51842032  0.75439189  0.91606514    -0.55000
C54         C  0.59705078  0.70968462  0.00226741     0.85100
O55         O  0.52788377  0.80215997  0.05355527    -0.56900
O56         O  0.42875892  0.73194209  0.97086927    -0.60200
C57         C  0.33577278  0.99727069  0.64085776    -0.02500
C58         C  0.68826064  0.99323474  0.63922585    -0.02500
C59         C  0.50216579  0.17807336  0.84958449    -0.02500
C60         C  0.49624130  0.83088493  0.86873001    -0.02500
C61         C  0.34052757  0.01193926  0.37371910    -0.02500
C62         C  0.66755970  0.01528891  0.37186576    -0.02500
C63         C  0.48641132  0.82747247  0.12811631    -0.02500
C64         C  0.49721912  0.16928455  0.12528882    -0.02500
In65       In  0.75294729  0.00126701  0.49859858     1.36900
C66         C  0.71531075  0.00003389  0.59063592     0.77500
O67         O  0.75509282  0.91693236  0.51251875    -0.60900
O68         O  0.81035419  0.95074716  0.47129751    -0.51800
C69         C  0.70526436  0.00652266  0.41171921     0.70200
O70         O  0.70341795  0.96974680  0.44042026    -0.46700
C71         C  0.81375513  0.07821407  0.50077241     0.74900
O72         O  0.75404525  0.97840347  0.57937726    -0.58500
O73         O  0.82382310  0.03261306  0.50864657    -0.48600
O74         O  0.69818171  0.02601324  0.55602511    -0.55000
C75         C  0.79569005  0.91147832  0.49240229     0.85100
O76         O  0.73254648  0.04016469  0.42701558    -0.56900
O77         O  0.76941489  0.08592353  0.49451315    -0.60200
C78         C  0.00012936  0.63215125  0.33127469    -0.02500
C79         C  0.01966943  0.65451275  0.68013375    -0.02500
C80         C  0.18283988  0.86001041  0.50093909    -0.02500
C81         C  0.82974482  0.86710564  0.50178697    -0.02500
C82         C  0.62818008  0.34137058  0.98490754    -0.02500
C83         C  0.64573474  0.68270222  0.00904963    -0.02500
C84         C  0.87267796  0.51891269  0.16744316    -0.02500
C85         C  0.87456221  0.52039879  0.82709112    -0.02500
In86       In  0.00666319  0.51117328  0.74798802     1.36900
C87         C  0.00135174  0.43042825  0.68968443     0.77500
O88         O  0.08212829  0.47457586  0.75949556    -0.60900
O89         O  0.05451613  0.52308385  0.81352026    -0.51800
C90         C  0.01444653  0.60378430  0.70702285     0.70200
O91         O  0.03061125  0.59385143  0.74877717    -0.46700
C92         C  0.91783933  0.51246254  0.79224700     0.74900
O93         O  0.02936811  0.46672462  0.68181742    -0.58500
O94         O  0.95150676  0.48165220  0.80161534    -0.48600
O95         O  0.97668095  0.43522509  0.72801377    -0.55000
C96         C  0.08884346  0.49415186  0.80064245     0.85100
O97         O  0.99385569  0.56669669  0.68742614    -0.56900
O98         O  0.92919447  0.54231214  0.75887804    -0.60200
C99         C  0.16968062  0.12182362  0.51703512    -0.02500
C100        C  0.98234693  0.36894945  0.32923796    -0.02500
C101        C  0.99290317  0.38955804  0.65182617    -0.02500
C102        C  0.85338130  0.11834288  0.49984444    -0.02500
C103        C  0.94794776  0.35553632  0.66609075    -0.19900
C104        C  0.95430643  0.30516799  0.68249025     0.36300
C105        C  0.92374325  0.26736675  0.66496043    -0.25900
C106        C  0.88154870  0.27962788  0.63948864     0.02700
C107        C  0.86622909  0.33021352  0.64164699     0.27500
C108        C  0.89981307  0.36752373  0.65339939    -0.25000
N109        N  0.99040368  0.29173301  0.71745127    -0.82400
H110        H  0.93371512  0.22853453  0.67033238     0.13400
C111        C  0.85859645  0.24137571  0.60646782     0.02700
N112        N  0.81730113  0.34487459  0.63195557    -0.81000
H113        H  0.88671182  0.40525748  0.65326865     0.18200
C114        C  0.84838547  0.19269815  0.62291837    -0.25800
C115        C  0.83821277  0.15331631  0.58986019     0.36200
C116        C  0.84288542  0.16115332  0.53866856    -0.19800
C117        C  0.84246706  0.21188539  0.52403906    -0.25100
C118        C  0.85236302  0.25093441  0.55617268     0.27600
H119        H  0.84971159  0.18481528  0.66156115     0.13300
N120        N  0.82477659  0.10593418  0.60944080    -0.82400
H121        H  0.83860817  0.22239936  0.48633985     0.18200
N122        N  0.86045597  0.29893671  0.53503645    -0.81000
H123        H  0.79065508  0.09722731  0.59619072     0.33800
H124        H  0.84890233  0.07804664  0.59817934     0.38300
H125        H  0.83334780  0.32381804  0.54597276     0.33800
H126        H  0.89376940  0.31178944  0.54652911     0.30500
H127        H  0.80379998  0.36249937  0.66334416     0.33800
H128        H  0.79598205  0.31336898  0.62665183     0.30500
H129        H  0.00691062  0.32357327  0.73155178     0.38300
H130        H  0.01635894  0.26917893  0.70032066     0.33800
C131        C  0.95545713  0.39194649  0.37474526    -0.19900
C132        C  0.94333659  0.36144102  0.41517934     0.36300
C133        C  0.93248039  0.38349898  0.45999098    -0.25900
C134        C  0.93641673  0.43498670  0.46626275     0.02700
C135        C  0.93917062  0.46567672  0.42567731     0.27500
C136        C  0.94510820  0.44383684  0.37951767    -0.25000
N137        N  0.94761721  0.30823079  0.41268532    -0.82400
H138        H  0.93007830  0.35985577  0.49162253     0.13400
C139        C  0.95678640  0.45090148  0.51262627     0.02700
N140        N  0.94156616  0.51859625  0.43221631    -0.81000
H141        H  0.94579364  0.46847665  0.34859338     0.18200
C142        C  0.00486944  0.43739898  0.52007537    -0.25800
C143        C  0.02029670  0.42372276  0.56628666     0.36200
C144        C  0.98565831  0.42113258  0.60473330    -0.19800
C145        C  0.94487703  0.45260016  0.59932196    -0.25100
C146        C  0.92793190  0.46381043  0.55283323     0.27600
H147        H  0.02920434  0.43281328  0.48939747     0.13300
N148        N  0.07040252  0.41255200  0.57344209    -0.82400
H149        H  0.92490858  0.46612279  0.63060747     0.18200
N150        N  0.88116683  0.48592458  0.54730728    -0.81000
H151        H  0.08042174  0.38351228  0.54983730     0.33800
H152        H  0.09072414  0.44356421  0.56398520     0.38300
H153        H  0.86027229  0.46206937  0.52601502     0.33800
H154        H  0.88510628  0.51961640  0.52867971     0.30500
H155        H  0.94845824  0.53511760  0.39873442     0.33800
H156        H  0.90766592  0.53111322  0.44391186     0.30500
H157        H  0.97316337  0.29692524  0.43822999     0.38300
H158        H  0.91457344  0.29371165  0.42382121     0.33800
C159        C  0.86278607  0.14351576  0.44882794    -0.19900
C160        C  0.90743291  0.16849764  0.43907662     0.36300
C161        C  0.91420898  0.19492724  0.39651840    -0.25900
C162        C  0.87704179  0.20449387  0.36405001     0.02700
C163        C  0.83224071  0.18115224  0.37208628     0.27500
C164        C  0.82589296  0.14993175  0.41363322    -0.25000
N165        N  0.94631958  0.17209096  0.47290416    -0.82400
H166        H  0.94896472  0.21214588  0.39093236     0.13400
C167        C  0.88759312  0.24368743  0.32662457     0.02700
N168        N  0.79340629  0.18959335  0.33869883    -0.81000
H169        H  0.79117925  0.13315419  0.41957601     0.18200
C170        C  0.93044063  0.23849584  0.29992921    -0.25800
C171        C  0.95954847  0.28003113  0.28979213     0.36200
C172        C  0.94612787  0.32866272  0.30704087    -0.19800
C173        C  0.89590652  0.33398011  0.31757196    -0.25100
C174        C  0.86780180  0.29216480  0.33073347     0.27600
H175        H  0.94428269  0.20130977  0.29181065     0.13300
N176        N  0.99971632  0.27217436  0.25817790    -0.82400
H177        H  0.88072697  0.37079743  0.32460044     0.18200
N178        N  0.82186952  0.29960418  0.35365158    -0.81000
H179        H  0.02136043  0.24386645  0.27294683     0.33800
H180        H  0.98691643  0.25910189  0.22474606     0.38300
H181        H  0.82670282  0.32184548  0.38465257     0.33800
H182        H  0.79988180  0.31936646  0.32950302     0.30500
H183        H  0.80382767  0.17451139  0.30499745     0.33800
H184        H  0.76280079  0.17018522  0.34981797     0.30500
H185        H  0.93464965  0.18440617  0.50711454     0.38300
H186        H  0.96645960  0.13903353  0.47362806     0.33800
C187        C  0.89955426  0.08713502  0.50964199    -0.19900
C188        C  0.91478441  0.05019916  0.47484364     0.36300
C189        C  0.95836785  0.02530179  0.48061293    -0.25900
C190        C  0.99008544  0.03952335  0.51721280     0.02700
C191        C  0.97392881  0.07286900  0.55413447     0.27500
C192        C  0.92892311  0.09521608  0.55051976    -0.25000
N193        N  0.88752695  0.04046085  0.43154868    -0.82400
H194        H  0.97011310  0.99954070  0.45230125     0.13400
C195        C  0.04175993  0.03439480  0.50716168     0.02700
N196        N  0.00388521  0.08903594  0.59334017    -0.81000
H197        H  0.92075136  0.12338596  0.57740245     0.18200
C198        C  0.07394575  0.02183917  0.54447101    -0.25800
C199        C  0.11823492  0.04590217  0.54706948     0.36200
C200        C  0.12823293  0.08390416  0.51258130    -0.19800
C201        C  0.10420475  0.07972894  0.46748035    -0.25100
C202        C  0.05985372  0.05736575  0.46505517     0.27600
H203        H  0.06301691  0.99868694  0.57449062     0.13300
N204        N  0.15073351  0.03411428  0.58594605    -0.82400
H205        H  0.11717209  0.09798974  0.43492398     0.18200
N206        N  0.03176621  0.06280926  0.42167207    -0.81000
H207        H  0.15976410  0.99625407  0.58312388     0.33800
H208        H  0.13243649  0.03816894  0.61914153     0.38300
H209        H  0.02744224  0.10096965  0.41451471     0.33800
H210        H  0.05108049  0.04664464  0.39273352     0.30500
H211        H  0.03385390  0.10691500  0.57884369     0.33800
H212        H  0.01439209  0.05805307  0.61387673     0.30500
H213        H  0.90891919  0.04918188  0.40135613     0.38300
H214        H  0.88030120  0.00222581  0.42997587     0.33800
C215        C  0.15879362  0.16475835  0.47972639    -0.19900
C216        C  0.18797746  0.18140302  0.44050970     0.36300
C217        C  0.17164192  0.22163335  0.41054491    -0.25900
C218        C  0.12569182  0.24378824  0.41777818     0.02700
C219        C  0.09581619  0.22388394  0.45393845     0.27500
C220        C  0.11331477  0.18819168  0.48592516    -0.25000
N221        N  0.23394054  0.15860412  0.43127274    -0.82400
H222        H  0.19486906  0.23560372  0.38200440     0.13400
C223        C  0.10703426  0.28855070  0.39048118     0.02700
N224        N  0.04620863  0.23842913  0.45683071    -0.81000
H225        H  0.08921179  0.17588283  0.51454961     0.18200
C226        C  0.10064115  0.28821327  0.33968267    -0.25800
C227        C  0.06730941  0.32199613  0.31775291     0.36200
C228        C  0.03266078  0.34730790  0.34751800    -0.19800
C229        C  0.04919339  0.35702006  0.39546623    -0.25100
C230        C  0.08624913  0.32899729  0.41671965     0.27600
H231        H  0.12096435  0.26188668  0.31739055     0.13300
N232        N  0.07094796  0.33312085  0.26675495    -0.82400
H233        H  0.03322993  0.38613864  0.41769622     0.18200
N234        N  0.09960181  0.34039099  0.46605029    -0.81000
H235        H  0.08005251  0.37074181  0.26369156     0.33800
H236        H  0.09914936  0.31249965  0.25083524     0.38300
H237        H  0.12879945  0.31836236  0.47707465     0.33800
H238        H  0.11199698  0.37716328  0.46647293     0.30500
H239        H  0.02600613  0.20655245  0.44988708     0.33800
H240        H  0.03861399  0.25058540  0.49217563     0.30500
H241        H  0.26006591  0.18638465  0.43311610     0.38300
H242        H  0.23385053  0.14437259  0.39571689     0.33800
C243        C  0.03610694  0.35237456  0.64276322    -0.19900
C244        C  0.03369684  0.31486544  0.60496092     0.36300
C245        C  0.07108670  0.28030030  0.59892080    -0.25900
C246        C  0.11093973  0.27910046  0.62948843     0.02700
C247        C  0.11549632  0.31659644  0.66511117     0.27500
C248        C  0.07857060  0.35314877  0.67134224    -0.25000
N249        N  0.99403336  0.30969017  0.57173448    -0.82400
H250        H  0.06763663  0.25159100  0.57123051     0.13400
C251        C  0.14298001  0.23419164  0.62489875     0.02700
N252        N  0.15648702  0.31653730  0.69627010    -0.81000
H253        H  0.08255901  0.38075772  0.69993762     0.18200
C254        C  0.18546638  0.23620529  0.59706604    -0.25800
C255        C  0.20200712  0.19371228  0.57043718     0.36200
C256        C  0.17205595  0.15087809  0.56685569    -0.19800
C257        C  0.13530539  0.14704851  0.60248486    -0.25100
C258        C  0.12235424  0.18708309  0.63266727     0.27600
H259        H  0.20296557  0.27184794  0.59221279     0.13300
N260        N  0.24467551  0.19674176  0.54085380    -0.82400
H261        H  0.11122377  0.11635920  0.60392238     0.18200
N262        N  0.08377334  0.18043454  0.66688267    -0.81000
H263        H  0.26122175  0.23132727  0.54575008     0.33800
H264        H  0.26896271  0.16970624  0.55341986     0.38300
H265        H  0.05408552  0.20199679  0.65648155     0.33800
H266        H  0.09536076  0.19286899  0.70100320     0.30500
H267        H  0.17341514  0.35107048  0.69288915     0.33800
H268        H  0.14359448  0.31374171  0.73186721     0.30500
H269        H  0.96595064  0.33450705  0.57830637     0.38300
H270        H  0.00675533  0.31781835  0.53675734     0.33800
C271        C  0.88790962  0.54274379  0.11833881    -0.19900
C272        C  0.93509856  0.55913676  0.10505288     0.36300
C273        C  0.94687089  0.56385383  0.05577438    -0.25900
C274        C  0.91141159  0.55845062  0.02088579     0.02700
C275        C  0.86285276  0.55966326  0.03514318     0.27500
C276        C  0.85149772  0.54856747  0.08300718    -0.25000
N277        N  0.97121026  0.57101720  0.13995924    -0.82400
H278        H  0.98387039  0.56919906  0.04491886     0.13400
C279        C  0.92313837  0.53681650  0.97342943     0.02700
N280        N  0.82470072  0.56722230  0.00079206    -0.81000
H281        H  0.81421288  0.54121203  0.09158480     0.18200
C282        C  0.90039745  0.49206408  0.96156007    -0.25800
C283        C  0.89150411  0.48027515  0.91319591     0.36200
C284        C  0.90021874  0.51766609  0.87752644    -0.19800
C285        C  0.93843736  0.55036154  0.88870894    -0.25100
C286        C  0.94825275  0.56253960  0.93733966     0.27600
H287        H  0.88639119  0.46832301  0.99003420     0.13300
N288        N  0.87540465  0.43087102  0.90080674    -0.82400
H289        H  0.95702329  0.56997179  0.85994966     0.18200
N290        N  0.98057780  0.60214473  0.94972154    -0.81000
H291        H  0.87249124  0.40855322  0.93184326     0.33800
H292        H  0.90162870  0.41429599  0.87837812     0.38300
H293        H  0.99612177  0.61688666  0.91821213     0.33800
H294        H  0.96033734  0.63097725  0.96590379     0.30500
H295        H  0.80826836  0.60087812  0.01097415     0.33800
H296        H  0.83827763  0.57390413  0.96588478     0.30500
H297        H  0.98098697  0.60828301  0.13496470     0.38300
H298        H  0.00138128  0.54892925  0.13169923     0.33800
C299        C  0.83483726  0.56004163  0.18709958    -0.19900
C300        C  0.84724002  0.61240718  0.19060490     0.36300
C301        C  0.81349587  0.64995880  0.17758377    -0.25900
C302        C  0.76672948  0.63859172  0.16274567     0.02700
C303        C  0.75145379  0.58924934  0.16840446     0.27500
C304        C  0.78443328  0.55150504  0.18174051    -0.25000
N305        N  0.89438458  0.63002998  0.20253747    -0.82400
H306        H  0.82537002  0.68835060  0.17519128     0.13400
C307        C  0.73909187  0.67380394  0.13036861     0.02700
N308        N  0.70346232  0.57578465  0.15506535    -0.81000
H309        H  0.76941389  0.51513794  0.17909023     0.18200
C310        C  0.76012754  0.68568267  0.08565062    -0.25800
C311        C  0.73221222  0.70068797  0.04559770     0.36200
C312        C  0.68076454  0.70365206  0.04945889    -0.19800
C313        C  0.66249738  0.70487968  0.09796545    -0.25100
C314        C  0.69022920  0.68771814  0.13778863     0.27600
H315        H  0.79821341  0.67825536  0.07994066     0.13300
N316        N  0.75722346  0.70982049  0.00106621    -0.82400
H317        H  0.62425833  0.71042380  0.10389493     0.18200
N318        N  0.66715523  0.68309838  0.18449407    -0.81000
H319        H  0.78192528  0.73842224  0.00706242     0.33800
H320        H  0.77638932  0.67764038  0.99082012     0.38300
H321        H  0.64068733  0.65576748  0.18144346     0.33800
H322        H  0.69156245  0.67106803  0.21089309     0.30500
H323        H  0.70568351  0.54892032  0.12733409     0.33800
H324        H  0.68713336  0.55924033  0.18526227     0.30500
H325        H  0.91774384  0.60176762  0.21255285     0.38300
H326        H  0.90879851  0.64722209  0.17170322     0.33800
C327        C  0.66708936  0.67777377  0.95595134    -0.19900
C328        C  0.69118529  0.71670477  0.93041677     0.36300
C329        C  0.72192117  0.70396090  0.89072260    -0.25900
C330        C  0.72399625  0.65486769  0.87168376     0.02700
C331        C  0.68875010  0.62137346  0.88796526     0.27500
C332        C  0.66022952  0.63348179  0.92880206    -0.25000
N333        N  0.68993353  0.76791347  0.94660923    -0.82400
H334        H  0.74598639  0.73196223  0.87637326     0.13400
C335        C  0.76743644  0.63603317  0.84344089     0.02700
N336        N  0.68367767  0.57347530  0.86544018    -0.81000
H337        H  0.63458059  0.60627094  0.94087799     0.18200
C338        C  0.81299816  0.64470764  0.86295366    -0.25800
C339        C  0.85354187  0.61639995  0.84817402     0.36200
C340        C  0.84800793  0.57293282  0.81835499    -0.19800
C341        C  0.80549562  0.57353770  0.78966271    -0.25100
C342        C  0.76532323  0.60434651  0.80183399     0.27600
H343        H  0.81743382  0.67347253  0.89047400     0.13300
N344        N  0.89971323  0.63755735  0.85677329    -0.82400
H345        H  0.80104493  0.54546653  0.76148223     0.18200
N346        N  0.72289120  0.60133521  0.77227580    -0.81000
H347        H  0.90239452  0.64532837  0.89402849     0.33800
H348        H  0.90100844  0.67186891  0.83879222     0.38300
H349        H  0.73275675  0.61113424  0.73680117     0.33800
H350        H  0.69744532  0.62816921  0.78333258     0.30500
H351        H  0.64843768  0.57089429  0.85253350     0.33800
H352        H  0.68795928  0.54678954  0.89251068     0.30500
H353        H  0.66701119  0.77277599  0.97645852     0.38300
H354        H  0.67518899  0.78920186  0.91844035     0.33800
C355        C  0.63298953  0.63093227  0.03076394    -0.19900
C356        C  0.66636630  0.59061629  0.03093755     0.36300
C357        C  0.65022067  0.54287127  0.04134596    -0.25900
C358        C  0.60123774  0.53498728  0.04945286     0.02700
C359        C  0.57125829  0.57487845  0.06152185     0.27500
C360        C  0.58819901  0.62298155  0.05482433    -0.25000
N361        N  0.71546609  0.59695011  0.01714483    -0.82400
H362        H  0.67414995  0.51123786  0.03520508     0.13400
C363        C  0.58188090  0.48954660  0.02873342     0.02700
N364        N  0.52240938  0.56691459  0.07534563    -0.81000
H365        H  0.56401752  0.65345948  0.06448629     0.18200
C366        C  0.57301016  0.44981972  0.05930724    -0.25800
C367        C  0.58235369  0.40135616  0.04294532     0.36200
C368        C  0.60360514  0.39297457  0.99563363    -0.19800
C369        C  0.60567158  0.43410944  0.96394520    -0.25100
C370        C  0.59091800  0.48137742  0.97908808     0.27600
H371        H  0.56425071  0.45652470  0.09733517     0.13300
N372        N  0.57459842  0.36108126  0.07626219    -0.82400
H373        H  0.62151186  0.43252982  0.92868012     0.18200
N374        N  0.59311457  0.52300302  0.94630521    -0.81000
H375        H  0.59402992  0.36816920  0.10805528     0.33800
H376        H  0.53802287  0.36081724  0.08549626     0.38300
H377        H  0.60046253  0.51089599  0.91072251     0.33800
H378        H  0.55894765  0.53964803  0.94567539     0.30500
H379        H  0.51682135  0.58357083  0.10948268     0.33800
H380        H  0.50158343  0.58645982  0.05024092     0.30500
H381        H  0.72282587  0.57373153  0.98719878     0.38300
H382        H  0.73633229  0.58443131  0.04630561     0.33800
C383        C  0.67045614  0.34529568  0.02363582    -0.19900
C384        C  0.67831496  0.31822358  0.06750071     0.36300
C385        C  0.71720361  0.33204733  0.09924421    -0.25900
C386        C  0.74886515  0.37180058  0.08785288     0.02700
C387        C  0.74062960  0.39794484  0.04445077     0.27500
C388        C  0.70308442  0.38455888  0.01399285    -0.25000
N389        N  0.64667178  0.27837359  0.08068290    -0.82400
H390        H  0.72290664  0.31160652  0.13269254     0.13400
C391        C  0.79012121  0.38891257  0.11968067     0.02700
N392        N  0.76997046  0.43970201  0.03128555    -0.81000
H393        H  0.69839779  0.40665731  0.98169772     0.18200
C394        C  0.83489563  0.39794557  0.09742104    -0.25800
C395        C  0.86564244  0.43567450  0.11483922     0.36200
C396        C  0.85138711  0.46514118  0.15621922    -0.19800
C397        C  0.81673988  0.44254531  0.18683833    -0.25100
C398        C  0.78339746  0.40783740  0.16734243     0.27600
H399        H  0.84331046  0.37952891  0.06310173     0.13300
N400        N  0.91043289  0.44436914  0.08990650    -0.82400
H401        H  0.81026718  0.45780885  0.22296248     0.18200
N402        N  0.74115583  0.39526464  0.19446517    -0.81000
H403        H  0.93804877  0.43228188  0.11275899     0.33800
H404        H  0.91344524  0.42187061  0.05877402     0.38300
H405        H  0.75215264  0.37951194  0.22741333     0.33800
H406        H  0.72227094  0.42836196  0.20239382     0.30500
H407        H  0.78618321  0.43199646  0.99756806     0.33800
H408        H  0.74799721  0.47134548  0.02767641     0.30500
H409        H  0.65590752  0.26420046  0.11484431     0.38300
H410        H  0.65212642  0.24921961  0.05576660     0.33800
C411        C  0.65419008  0.33339142  0.93351023    -0.19900
C412        C  0.70190350  0.31292126  0.92990878     0.36300
C413        C  0.73548714  0.33495182  0.89809758    -0.25900
C414        C  0.72091631  0.37185479  0.86505603     0.02700
C415        C  0.67072621  0.37819099  0.85757311     0.27500
C416        C  0.63744501  0.35572917  0.89033132    -0.25000
N417        N  0.71757435  0.27169084  0.95933681    -0.82400
H418        H  0.77336054  0.32554118  0.90148273     0.13400
C419        C  0.75691312  0.41035309  0.84873559     0.02700
N420        N  0.65386781  0.40990931  0.81905007    -0.81000
H421        H  0.59934915  0.36389409  0.88682091     0.18200
C422        C  0.78914983  0.40254102  0.80940848    -0.25800
C423        C  0.82644964  0.43702668  0.79854554     0.36200
C424        C  0.83235183  0.48080118  0.82794902    -0.19800
C425        C  0.79658812  0.48953911  0.86432166    -0.25100
C426        C  0.76119495  0.45460589  0.87615348     0.27600
H427        H  0.78613183  0.36879856  0.78769042     0.13300
N428        N  0.85712039  0.42597516  0.75787080    -0.82400
H429        H  0.79898031  0.52277387  0.88691706     0.18200
N430        N  0.73170861  0.46234915  0.91866501    -0.81000
H431        H  0.89184855  0.41911481  0.77057994     0.33800
H432        H  0.85708197  0.45672152  0.73452075     0.38300
H433        H  0.69600971  0.46571215  0.90755534     0.33800
H434        H  0.74058255  0.49548818  0.93669976     0.30500
H435        H  0.61622550  0.41071608  0.81851701     0.33800
H436        H  0.66477254  0.44640159  0.82658665     0.30500
H437        H  0.68861588  0.25684272  0.97861312     0.38300
H438        H  0.74305746  0.28458818  0.98419513     0.33800
C439        C  0.87987718  0.89190645  0.49820108    -0.19900
C440        C  0.90998007  0.88940500  0.45608695     0.36300
C441        C  0.95892724  0.89383698  0.46218286    -0.25900
C442        C  0.97731833  0.90919374  0.50709402     0.02700
C443        C  0.94533138  0.92798977  0.54328271     0.27500
C444        C  0.89633544  0.92329104  0.53518970    -0.25000
N445        N  0.89232794  0.88838220  0.40707892    -0.82400
H446        H  0.98248971  0.88541763  0.43153680     0.13400
C447        C  0.02928787  0.90531714  0.51261190     0.02700
N448        N  0.96048060  0.95104565  0.58793978    -0.81000
H449        H  0.87132482  0.94434466  0.55721096     0.18200
C450        C  0.05807251  0.92462873  0.47575829    -0.25800
C451        C  0.10664366  0.91228635  0.47161960     0.36200
C452        C  0.12828697  0.87769895  0.50459938    -0.19800
C453        C  0.09859609  0.86403217  0.54516344    -0.25100
C454        C  0.04979876  0.87443238  0.54768948     0.27600
H455        H  0.04223719  0.94885253  0.44854662     0.13300
N456        N  0.13332328  0.93825776  0.43541369    -0.82400
H457        H  0.11137980  0.84423651  0.57639573     0.18200
N458        N  0.02168618  0.84953055  0.58404913    -0.81000
H459        H  0.13161747  0.97648337  0.44342811     0.33800
H460        H  0.11593367  0.93310644  0.40206165     0.38300
H461        H  0.99340793  0.83078976  0.56716573     0.33800
H462        H  0.00773449  0.87531964  0.60903725     0.30500
H463        H  0.94388543  0.98616885  0.59091191     0.33800
H464        H  0.99735737  0.95686370  0.58765836     0.30500
H465        H  0.85602215  0.89825056  0.40549614     0.38300
H466        H  0.89829634  0.85275245  0.39237188     0.33800
C467        C  0.19089443  0.82382489  0.54589642    -0.19900
C468        C  0.16618228  0.77672422  0.54778962     0.36300
C469        C  0.15900878  0.75203569  0.59189869    -0.25900
C470        C  0.16566950  0.77622352  0.63632825     0.02700
C471        C  0.19051792  0.82194428  0.63665658     0.27500
C472        C  0.20540888  0.84374577  0.59176614    -0.25000
N473        N  0.13753359  0.75970140  0.50783930    -0.82400
H474        H  0.13895459  0.71745189  0.59126480     0.13400
C475        C  0.13644610  0.75650598  0.67803438     0.02700
N476        N  0.19744123  0.84768622  0.68207796    -0.81000
H477        H  0.22202760  0.88004893  0.59316744     0.18200
C478        C  0.14489442  0.70725969  0.69247456    -0.25800
C479        C  0.10643993  0.67569409  0.70476914     0.36200
C480        C  0.05790312  0.69209906  0.70147939    -0.19800
C481        C  0.05156729  0.74488668  0.69897198    -0.25100
C482        C  0.09035471  0.77701389  0.68750646     0.27600
H483        H  0.18063886  0.69117480  0.68792971     0.13300
N484        N  0.11695194  0.62525022  0.71628132    -0.82400
H485        H  0.01614557  0.76133615  0.69737672     0.18200
N486        N  0.08175040  0.82931584  0.67922217    -0.81000
H487        H  0.13817827  0.60991352  0.68831736     0.33800
H488        H  0.13686681  0.62742543  0.74823743     0.38300
H489        H  0.04568743  0.83853500  0.68618594     0.33800
H490        H  0.10178386  0.84904948  0.70491553     0.30500
H491        H  0.21503592  0.88152229  0.67648084     0.33800
H492        H  0.21986194  0.82547871  0.70367393     0.30500
H493        H  0.10134539  0.76252395  0.51807238     0.38300
H494        H  0.14528071  0.72181389  0.50176913     0.33800
C495        C  0.81982406  0.84148790  0.55334117    -0.19900
C496        C  0.84365901  0.85414006  0.59735392     0.36300
C497        C  0.86358579  0.81601553  0.62642161    -0.25900
C498        C  0.85011743  0.76580160  0.62038019     0.02700
C499        C  0.80998795  0.75768670  0.58961082     0.27500
C500        C  0.79642724  0.79466545  0.55528784    -0.25000
N501        N  0.83550807  0.90205654  0.61960875    -0.82400
H502        H  0.88801539  0.82657506  0.65519509     0.13400
C503        C  0.87999350  0.72502660  0.64492318     0.02700
N504        N  0.78163690  0.71364671  0.59414042    -0.81000
H505        H  0.77035979  0.78510256  0.52764187     0.18200
C506        C  0.90144073  0.73456524  0.69078676    -0.25800
C507        C  0.94299049  0.70789797  0.70660699     0.36200
C508        C  0.96678391  0.67471797  0.67395810    -0.19800
C509        C  0.93899018  0.65736412  0.63445751    -0.25100
C510        C  0.89650831  0.68137862  0.61984428     0.27600
H511        H  0.88685743  0.76419806  0.71367577     0.13300
N512        N  0.96185542  0.71573926  0.75464375    -0.82400
H513        H  0.95151624  0.62572044  0.61290520     0.18200
N514        N  0.87163805  0.65927736  0.57982064    -0.81000
H515        H  0.93989242  0.74074353  0.77422593     0.33800
H516        H  0.96059290  0.68154719  0.77284351     0.38300
H517        H  0.86536656  0.68531943  0.55252767     0.33800
H518        H  0.83949916  0.64421591  0.59261901     0.30500
H519        H  0.77881120  0.69715567  0.55964975     0.33800
H520        H  0.74693384  0.72479886  0.60475248     0.30500
H521        H  0.86790923  0.91414964  0.63472270     0.38300
H522        H  0.81144850  0.89736218  0.64862427     0.33800
C523        C  0.00570916  0.61278815  0.38405543    -0.19900
C524        C  0.04949124  0.58780795  0.39800975     0.36300
C525        C  0.06313114  0.58661272  0.44673086    -0.25900
C526        C  0.03337496  0.60762080  0.48213814     0.02700
C527        C  0.98675689  0.62396979  0.46995505     0.27500
C528        C  0.97384685  0.62806080  0.42138113    -0.25000
N529        N  0.08260048  0.56780504  0.36254127    -0.82400
H530        H  0.09876874  0.57311680  0.45605299     0.13400
C531        C  0.05265557  0.62112040  0.52984946     0.02700
N532        N  0.95360100  0.63998332  0.50710975    -0.81000
H533        H  0.94035702  0.64686033  0.41422948     0.18200
C534        C  0.04707863  0.67086556  0.54376795    -0.25800
C535        C  0.03849132  0.68292146  0.59218019     0.36200
C536        C  0.04049147  0.64488550  0.62823252    -0.19800
C537        C  0.06001374  0.59781941  0.61398102    -0.25100
C538        C  0.06451415  0.58528038  0.56487362     0.27600
H539        H  0.04064093  0.69911554  0.51630455     0.13300
N540        N  0.02227785  0.73256324  0.60318390    -0.82400
H541        H  0.06877002  0.56921770  0.64025951     0.18200
N542        N  0.07833455  0.53552616  0.55163521    -0.81000
H543        H  0.04914886  0.75695545  0.59186819     0.33800
H544        H  0.99125741  0.74001278  0.58287069     0.38300
H545        H  0.05182595  0.52113513  0.52895470     0.33800
H546        H  0.11054996  0.53705315  0.53190307     0.30500
H547        H  0.94488839  0.67751403  0.50102324     0.33800
H548        H  0.92227412  0.61900402  0.50339105     0.30500
H549        H  0.11588601  0.58506615  0.36725357     0.38300
H550        H  0.08731252  0.52968429  0.36955101     0.33800
C551        C  0.04217978  0.67143487  0.33089096    -0.19900
C552        C  0.08751325  0.66698931  0.30692483     0.36300
C553        C  0.12651200  0.69802841  0.32131806    -0.25900
C554        C  0.12101304  0.73412584  0.35877480     0.02700
C555        C  0.07516607  0.74145999  0.37925796     0.27500
C556        C  0.03716749  0.71111724  0.36531457    -0.25000
N557        N  0.09488898  0.63086951  0.26902952    -0.82400
H558        H  0.16135064  0.69314300  0.30392182     0.13400
C559        C  0.16146188  0.76507872  0.37824631     0.02700
N560        N  0.06718287  0.77893058  0.41608199    -0.81000
H561        H  0.00340885  0.71674151  0.38460184     0.18200
C562        C  0.15994772  0.81681878  0.37060512    -0.25800
C563        C  0.18118503  0.84997716  0.40402615     0.36200
C564        C  0.19446279  0.83157557  0.45065370    -0.19800
C565        C  0.21219119  0.78165922  0.44892304    -0.25100
C566        C  0.19360944  0.74732555  0.41440013     0.27600
H567        H  0.14277587  0.83141521  0.33822925     0.13300
N568        N  0.20607894  0.89163736  0.38344126    -0.82400
H569        H  0.23317016  0.76690451  0.47879135     0.18200
N570        N  0.20399265  0.69501934  0.42052058    -0.81000
H571        H  0.18344621  0.91091180  0.35947909     0.33800
H572        H  0.21647833  0.91616367  0.41066212     0.38300
H573        H  0.24116180  0.69008782  0.41628197     0.33800
H574        H  0.18807230  0.67379256  0.39309023     0.30500
H575        H  0.04094734  0.80392550  0.40343397     0.33800
H576        H  0.05322767  0.76146457  0.44696637     0.30500
H577        H  0.12343344  0.60731695  0.27891096     0.38300
H578        H  0.10556547  0.65026372  0.23797106     0.33800
C579        C  0.95056798  0.65990569  0.32090637    -0.19900
C580        C  0.90502994  0.63919044  0.33258056     0.36300
C581        C  0.86652963  0.67128843  0.34656979    -0.25900
C582        C  0.87189056  0.72336881  0.34570984     0.02700
C583        C  0.91113202  0.74269857  0.31946616     0.27500
C584        C  0.94919030  0.71034867  0.30519271    -0.25000
N585        N  0.89902083  0.58635393  0.33585736    -0.82400
H586        H  0.83501606  0.65555677  0.36386150     0.13400
C587        C  0.85074728  0.75397253  0.38639219     0.02700
N588        N  0.91482269  0.79573941  0.31269871    -0.81000
H589        H  0.98030910  0.72642060  0.28761831     0.18200
C590        C  0.87613593  0.75192708  0.43006064    -0.25800
C591        C  0.86779335  0.78633860  0.46747964     0.36200
C592        C  0.83105498  0.82375709  0.46321599    -0.19800
C593        C  0.80146941  0.82211113  0.42146895    -0.25100
C594        C  0.81196163  0.78871876  0.38225592     0.27600
H595        H  0.90612908  0.72603076  0.43354055     0.13300
N596        N  0.90065676  0.78683425  0.50770504    -0.82400
H597        H  0.77274573  0.84936265  0.41755023     0.18200
N598        N  0.78412443  0.79260268  0.33847255    -0.81000
H599        H  0.89992463  0.75216657  0.52461276     0.33800
H600        H  0.93553635  0.79159235  0.49407189     0.38300
H601        H  0.74853013  0.78401835  0.34734929     0.33800
H602        H  0.79544605  0.76616172  0.31259791     0.30500
H603        H  0.94666803  0.80437990  0.29426856     0.33800
H604        H  0.88642563  0.80689128  0.29023294     0.30500
H605        H  0.88486981  0.57864473  0.37030347     0.38300
H606        H  0.87272675  0.57634356  0.31060488     0.33800
C607        C  0.48520636  0.11789168  0.10149244    -0.19900
C608        C  0.51011144  0.10103709  0.05872584     0.36300
C609        C  0.49826355  0.05581440  0.03700961    -0.25900
C610        C  0.46538012  0.02386457  0.05903217     0.02700
C611        C  0.43886003  0.04049891  0.09990751     0.27500
C612        C  0.44811350  0.08707783  0.11979072    -0.25000
N613        N  0.55030503  0.12784990  0.03935681    -0.82400
H614        H  0.52041068  0.04247285  0.00705872     0.13400
C615        C  0.47613703  0.97070620  0.05541357     0.02700
N616        N  0.40609196  0.00879103  0.12558765    -0.81000
H617        H  0.42760963  0.09618878  0.15206167     0.18200
C618        C  0.52030794  0.95601265  0.07454732    -0.25800
C619        C  0.52603542  0.90875617  0.09381340     0.36200
C620        C  0.48501625  0.87732087  0.09885308    -0.19800
C621        C  0.44887255  0.88644126  0.06368497    -0.25100
C622        C  0.44159610  0.93447834  0.04533180     0.27600
H623        H  0.54983941  0.98209906  0.07720617     0.13300
N624        N  0.57414785  0.89157853  0.10241698    -0.82400
H625        H  0.42685246  0.85658198  0.04987630     0.18200
N626        N  0.39950723  0.94622040  0.01766015    -0.81000
H627        H  0.59054440  0.91607498  0.12678524     0.33800
H628        H  0.59330894  0.89278783  0.06957366     0.38300
H629        H  0.39904531  0.92236530  0.98739488     0.33800
H630        H  0.36933312  0.93789848  0.03893185     0.30500
H631        H  0.37869259  0.99822859  0.10189416     0.33800
H632        H  0.42444920  0.97692074  0.13765014     0.30500
H633        H  0.58080807  0.10465963  0.04087752     0.38300
H634        H  0.54354907  0.13462073  0.00267271     0.33800
C635        C  0.67140934  0.06933968  0.34765778    -0.19900
C636        C  0.70543754  0.07867277  0.30946186     0.36300
C637        C  0.69239764  0.10889471  0.26917387    -0.25900
C638        C  0.64736909  0.13363840  0.26722508     0.02700
C639        C  0.62029745  0.13525242  0.31060257     0.27500
C640        C  0.63249063  0.10414780  0.34996289    -0.25000
N641        N  0.75240872  0.05616289  0.30913931    -0.82400
H642        H  0.71681243  0.11114533  0.23843045     0.13400
C643        C  0.62442137  0.15018434  0.21969704     0.02700
N644        N  0.57728277  0.16490676  0.31351741    -0.81000
H645        H  0.60720370  0.10493101  0.37936382     0.18200
C646        C  0.60211621  0.19751592  0.21538489    -0.25800
C647        C  0.56603655  0.20754528  0.18019057     0.36200
C648        C  0.54960229  0.16829845  0.14863891    -0.19800
C649        C  0.57745449  0.12331149  0.14951446    -0.25100
C650        C  0.61523513  0.11487305  0.18275186     0.27600
H651        H  0.61014560  0.22611653  0.24214958     0.13300
N652        N  0.54327757  0.25608790  0.18218381    -0.82400
H653        H  0.56811222  0.09170814  0.12736015     0.18200
N654        N  0.64193972  0.06856862  0.18100365    -0.81000
H655        H  0.52620829  0.25971125  0.21611735     0.33800
H656        H  0.51663286  0.26029502  0.15603875     0.38300
H657        H  0.63026416  0.04632116  0.15206199     0.33800
H658        H  0.67752918  0.07721200  0.17230688     0.30500
H659        H  0.54911992  0.14054075  0.32048347     0.33800
H660        H  0.58026144  0.18915698  0.34331173     0.30500
H661        H  0.76982150  0.06620345  0.34135097     0.38300
H662        H  0.74944160  0.01748421  0.30774927     0.33800
C663        C  0.52623235  0.83414690  0.16855552    -0.19900
C664        C  0.51703267  0.86893573  0.20679623     0.36300
C665        C  0.55149679  0.87938617  0.24164974    -0.25900
C666        C  0.60005186  0.87086844  0.23172711     0.02700
C667        C  0.61157020  0.83440592  0.19558602     0.27500
C668        C  0.57360356  0.81305946  0.16687330    -0.25000
N669        N  0.47352354  0.89751774  0.20877670    -0.82400
H670        H  0.54124181  0.90424113  0.27142275     0.13400
C671        C  0.63351797  0.90928639  0.25364071     0.02700
N672        N  0.66098201  0.82103588  0.18656752    -0.81000
H673        H  0.58250834  0.78599040  0.13875611     0.18200
C674        C  0.67257399  0.89705846  0.28431870    -0.25800
C675        C  0.69018714  0.93225963  0.31947743     0.36200
C676        C  0.66484618  0.97853759  0.32689586    -0.19800
C677        C  0.63009438  0.99137057  0.29154153    -0.25100
C678        C  0.61724483  0.95954488  0.25365807     0.27600
H679        H  0.68666632  0.85916706  0.28376727     0.13300
N680        N  0.72900329  0.91822396  0.35103725    -0.82400
H681        H  0.61005892  0.02604418  0.29474508     0.18200
N682        N  0.58199816  0.97602701  0.21877473    -0.81000
H683        H  0.74187346  0.88268456  0.34159345     0.33800
H684        H  0.75752596  0.94253918  0.34486984     0.38300
H685        H  0.57120063  0.01304722  0.22522077     0.33800
H686        H  0.59845859  0.97498914  0.18458222     0.30500
H687        H  0.66331765  0.79465227  0.15847146     0.33800
H688        H  0.67848216  0.85298788  0.17408890     0.30500
H689        H  0.46017374  0.89361776  0.24413521     0.38300
H690        H  0.48223399  0.93515995  0.20414202     0.33800
C691        C  0.39185622  0.01339960  0.39623558    -0.19900
C692        C  0.40704189  0.97496144  0.42867134     0.36300
C693        C  0.44886474  0.98043865  0.45608009    -0.25900
C694        C  0.48078612  0.01933317  0.44636944     0.02700
C695        C  0.46686272  0.05675122  0.41301107     0.27500
C696        C  0.42352397  0.05297042  0.38873239    -0.25000
N697        N  0.37985023  0.93004110  0.43366979    -0.82400
H698        H  0.45982972  0.95029750  0.47999175     0.13400
C699        C  0.53232000  0.00795845  0.45164877     0.02700
N700        N  0.49787199  0.09652512  0.39871874    -0.81000
H701        H  0.41727409  0.07965189  0.36097190     0.18200
C702        C  0.54829347  0.96529058  0.42704206    -0.25800
C703        C  0.59248751  0.96425255  0.40405231     0.36200
C704        C  0.62111793  0.00857022  0.40332856    -0.19800
C705        C  0.61111368  0.04315174  0.44175430    -0.25100
C706        C  0.56611744  0.04384548  0.46534973     0.27600
H707        H  0.52449867  0.93397692  0.42112299     0.13300
N708        N  0.60755553  0.91617625  0.38657097    -0.82400
H709        H  0.63678779  0.07211174  0.45027099     0.18200
N710        N  0.55339419  0.08226219  0.49995648    -0.81000
H711        H  0.60130237  0.91269533  0.34945694     0.33800
H712        H  0.64258024  0.90767597  0.39780949     0.38300
H713        H  0.58249876  0.10606259  0.50552718     0.33800
H714        H  0.54658749  0.06484431  0.53325953     0.30500
H715        H  0.52905845  0.08115419  0.38323987     0.33800
H716        H  0.50607820  0.11832267  0.42912857     0.30500
H717        H  0.40246001  0.89956646  0.42566074     0.38300
H718        H  0.36838171  0.92722604  0.46976404     0.33800
C719        C  0.34449484  0.96660674  0.33689759    -0.19900
C720        C  0.37477109  0.97111135  0.29500865     0.36300
C721        C  0.37608897  0.93397641  0.25916612    -0.25900
C722        C  0.35590360  0.88704375  0.26628806     0.02700
C723        C  0.32710760  0.88031715  0.30847947     0.27500
C724        C  0.32065542  0.92025391  0.34253443    -0.25000
N725        N  0.40471135  0.01384089  0.28810129    -0.82400
H726        H  0.39519943  0.94170560  0.22569819     0.13400
C727        C  0.36886805  0.84725786  0.22908011     0.02700
N728        N  0.30279507  0.83420791  0.31674604    -0.81000
H729        H  0.29853436  0.91399027  0.37425149     0.18200
C730        C  0.40426545  0.81082756  0.23967093    -0.25800
C731        C  0.43665032  0.79312704  0.20289965     0.36200
C732        C  0.43666486  0.81543712  0.15571582    -0.19800
C733        C  0.39223267  0.83908255  0.14372674    -0.25100
C734        C  0.35922487  0.85582748  0.17943776     0.27600
H735        H  0.41066931  0.80049504  0.27719075     0.13300
N736        N  0.47244182  0.75636180  0.21495467    -0.82400
H737        H  0.38180103  0.84651118  0.10716235     0.18200
N738        N  0.31818946  0.88492405  0.16428314    -0.81000
H739        H  0.45459377  0.72404707  0.22585786     0.33800
H740        H  0.49198405  0.76944081  0.24480067     0.38300
H741        H  0.29744376  0.86217251  0.14170717     0.33800
H742        H  0.29622306  0.89409845  0.19411137     0.30500
H743        H  0.32856415  0.80552741  0.31842728     0.33800
H744        H  0.28059634  0.82729047  0.28686328     0.30500
H745        H  0.39706029  0.02942190  0.25412616     0.38300
H746        H  0.44054578  0.00144658  0.28704966     0.33800
C747        C  0.32454920  0.06090346  0.34495946    -0.19900
C748        C  0.30636204  0.06005671  0.29632038     0.36300
C749        C  0.32199230  0.09642976  0.26271862    -0.25900
C750        C  0.35056166  0.13653858  0.27804438     0.02700
C751        C  0.35158900  0.14636202  0.32912907     0.27500
C752        C  0.33616367  0.10910772  0.36224762    -0.25000
N753        N  0.27255656  0.02332024  0.28014486    -0.82400
H754        H  0.31524394  0.09081151  0.22424973     0.13400
C755        C  0.38733563  0.15791950  0.24284616     0.02700
N756        N  0.37249193  0.19110112  0.34849416    -0.81000
H757        H  0.34285449  0.11463336  0.40074939     0.18200
C758        C  0.37488936  0.18044665  0.19827950    -0.25800
C759        C  0.41043083  0.19167563  0.16213913     0.36200
C760        C  0.45984234  0.17891077  0.16884901    -0.19800
C761        C  0.47118370  0.15908326  0.21545103    -0.25100
C762        C  0.43647853  0.14941392  0.25135180     0.27600
H763        H  0.33726622  0.18780492  0.19060027     0.13300
N764        N  0.39533290  0.21294890  0.11738197    -0.82400
H765        H  0.50697568  0.14582948  0.22383387     0.18200
N766        N  0.45159260  0.12752795  0.29601341    -0.81000
H767        H  0.37787719  0.24675266  0.12573298     0.33800
H768        H  0.37069872  0.18837512  0.10185098     0.38300
H769        H  0.47289141  0.09592424  0.28839554     0.33800
H770        H  0.47195956  0.15395811  0.31457511     0.30500
H771        H  0.34584674  0.20949069  0.36904810     0.33800
H772        H  0.38163005  0.21545855  0.32036758     0.30500
H773        H  0.26098385  0.00126996  0.30914202     0.38300
H774        H  0.28916260  0.00043021  0.25391121     0.33800
C775        C  0.48265144  0.12580646  0.86399896    -0.19900
C776        C  0.48441240  0.08469984  0.83100401     0.36300
C777        C  0.46940855  0.03803958  0.84625338    -0.25900
C778        C  0.44960747  0.03151234  0.89256023     0.02700
C779        C  0.43921521  0.07282131  0.92229933     0.27500
C780        C  0.45565272  0.11935389  0.90782113    -0.25000
N781        N  0.50210725  0.08946303  0.78226079    -0.82400
H782        H  0.47492187  0.00609494  0.82223127     0.13400
C783        C  0.44618700  0.98024752  0.90909921     0.02700
N784        N  0.41204425  0.06906749  0.96679295    -0.81000
H785        H  0.44597669  0.15050627  0.93125778     0.18200
C786        C  0.48690576  0.96012210  0.93133007    -0.25800
C787        C  0.50043457  0.91054819  0.92291749     0.36200
C788        C  0.47360044  0.88081673  0.88936085    -0.19800
C789        C  0.42850527  0.90047172  0.87421595    -0.25100
C790        C  0.41407600  0.94925706  0.88514569     0.27600
H791        H  0.51202900  0.98442425  0.94942556     0.13300
N792        N  0.54494702  0.89274876  0.94318395    -0.82400
H793        H  0.40490216  0.88108200  0.85076452     0.18200
N794        N  0.36981522  0.96977054  0.86648339    -0.81000
H795        H  0.57261979  0.91638381  0.93202697     0.33800
H796        H  0.54223137  0.89521763  0.98112757     0.38300
H797        H  0.34993538  0.94227263  0.84864981     0.33800
H798        H  0.34905024  0.98149398  0.89638373     0.30500
H799        H  0.38109580  0.09130763  0.96314166     0.33800
H800        H  0.39993815  0.03270775  0.97191534     0.30500
H801        H  0.53069046  0.06419993  0.77712629     0.38300
H802        H  0.47440608  0.07894841  0.75881815     0.33800
C803        C  0.55556072  0.17397572  0.83003486    -0.19900
C804        C  0.57931478  0.21312293  0.80501165     0.36300
C805        C  0.61753428  0.20068841  0.77193927    -0.25900
C806        C  0.63664319  0.15158536  0.76964883     0.02700
C807        C  0.62339039  0.11855098  0.80703870     0.27500
C808        C  0.58365977  0.13025373  0.83731216    -0.25000
N809        N  0.56116187  0.26349581  0.80865797    -0.82400
H810        H  0.62996257  0.22816568  0.74605397     0.13400
C811        C  0.66100291  0.13042831  0.72462112     0.02700
N812        N  0.64847519  0.07176364  0.81223120    -0.81000
H813        H  0.57263055  0.10294763  0.86394122     0.18200
C814        C  0.70735401  0.10855724  0.72581644    -0.25800
C815        C  0.72110826  0.07066925  0.69186820     0.36200
C816        C  0.68478520  0.04743575  0.66295181    -0.19800
C817        C  0.64387214  0.07822718  0.65412252    -0.25100
C818        C  0.63290821  0.12003224  0.68355309     0.27600
H819        H  0.73227216  0.11970796  0.75397545     0.13300
N820        N  0.77127883  0.05712770  0.68789556    -0.82400
H821        H  0.61899808  0.06915828  0.62522777     0.18200
N822        N  0.59239648  0.15104445  0.67232597    -0.81000
H823        H  0.78489064  0.04786639  0.72213401     0.33800
H824        H  0.77637510  0.02644531  0.66474885     0.38300
H825        H  0.59740561  0.16518015  0.63721212     0.33800
H826        H  0.56213272  0.12859166  0.67174187     0.30500
H827        H  0.63660528  0.05331881  0.84343378     0.36200
H828        H  0.64005993  0.04950352  0.78212441     0.30500
H829        H  0.56647007  0.27552899  0.84450105     0.38300
H830        H  0.58149886  0.28710954  0.78657931     0.33800
C831        C  0.54691168  0.84369210  0.84478367    -0.19900
C832        C  0.58138997  0.80729770  0.82797570     0.36300
C833        C  0.62152851  0.82166812  0.79865390    -0.25900
C834        C  0.62979348  0.87211146  0.78677505     0.02700
C835        C  0.59674180  0.90795025  0.80484765     0.27500
C836        C  0.55559686  0.89346474  0.82998758    -0.25000
N837        N  0.57389457  0.75529725  0.83663267    -0.82400
H838        H  0.64591177  0.79310517  0.78463996     0.13400
C839        C  0.66907254  0.88838078  0.75208905     0.02700
N840        N  0.60392978  0.96021298  0.79746325    -0.81000
H841        H  0.52958173  0.92308417  0.83596014     0.18200
C842        C  0.67169061  0.87021345  0.70406649    -0.25800
C843        C  0.69368893  0.89855875  0.66658898     0.36200
C844        C  0.70623160  0.95000782  0.67550757    -0.19800
C845        C  0.71469788  0.96052965  0.72562016    -0.25100
C846        C  0.69786738  0.92958202  0.76325469     0.27600
H847        H  0.65410522  0.83549779  0.69481841     0.13300
N848        N  0.69836333  0.87552468  0.61952648    -0.82400
H849        H  0.72925950  0.99471041  0.73816805     0.18200
N850        N  0.70725773  0.94213518  0.81312487    -0.81000
H851        H  0.66391751  0.86785207  0.60658200     0.33800
H852        H  0.71520742  0.89925046  0.59513446     0.38300
H853        H  0.74455727  0.94123974  0.81798013     0.33800
H854        H  0.69559585  0.97883959  0.81958314     0.30500
H855        H  0.57362142  0.97552608  0.78069727     0.33800
H856        H  0.60576661  0.97656411  0.83203844     0.30500
H857        H  0.60415354  0.74110703  0.85462181     0.38300
H858        H  0.57141747  0.73709350  0.80294784     0.33800
C859        C  0.38882695  0.99583624  0.62300137    -0.19900
C860        C  0.40717884  0.95220223  0.59807425     0.36300
C861        C  0.45624610  0.94628296  0.58987250    -0.25900
C862        C  0.48768568  0.98206386  0.60653857     0.02700
C863        C  0.47056878  0.02725147  0.62610476     0.27500
C864        C  0.42171821  0.03370338  0.63483163    -0.25000
N865        N  0.37657999  0.91185412  0.58405595    -0.82400
H866        H  0.47004772  0.91150296  0.57454034     0.13400
C867        C  0.53746913  0.96789805  0.61413316     0.02700
N868        N  0.50346460  0.06503199  0.64103495    -0.81000
H869        H  0.41184400  0.06631840  0.65566163     0.18200
C870        C  0.56795727  0.96142647  0.57445869    -0.25800
C871        C  0.61759777  0.96166617  0.58118555     0.36200
C872        C  0.63621827  0.97609252  0.62777382    -0.19800
C873        C  0.60441655  0.97363275  0.66797002    -0.25100
C874        C  0.55570341  0.96594453  0.66159986     0.27600
H875        H  0.55324327  0.95672361  0.53830112     0.13300
N876        N  0.64741147  0.94528486  0.54138881    -0.82400
H877        H  0.61752400  0.97942865  0.70449764     0.18200
N878        N  0.52545591  0.95812775  0.70349518    -0.81000
H879        H  0.63794660  0.90867300  0.53234034     0.33800
H880        H  0.63921687  0.96749720  0.51130105     0.38300
H881        H  0.53763540  0.92526085  0.72001022     0.33800
H882        H  0.49027971  0.95018003  0.69306093     0.30500
H883        H  0.49402572  0.09818513  0.62332111     0.33800
H884        H  0.49893443  0.07072245  0.67845646     0.30500
H885        H  0.38096609  0.90561757  0.54676265     0.38300
H886        H  0.38852396  0.87951031  0.60173237     0.33800
C887        C  0.32041872  0.04812623  0.66680606    -0.19900
C888        C  0.30468648  0.05226860  0.71631030     0.36300
C889        C  0.32114749  0.09261201  0.74499254    -0.25900
C890        C  0.34499086  0.13322385  0.72346505     0.02700
C891        C  0.34177004  0.13679344  0.67194337     0.27500
C892        C  0.32924176  0.09427862  0.64384013    -0.25000
N893        N  0.27273163  0.01693844  0.73834100    -0.82400
H894        H  0.31755349  0.09019856  0.78414246     0.13400
C895        C  0.38037778  0.16449435  0.75262289     0.02700
N896        N  0.35396090  0.18237033  0.64795003    -0.81000
H897        H  0.33421710  0.09543533  0.60469339     0.18200
C898        C  0.42556189  0.17336005  0.73206128    -0.25800
C899        C  0.46509432  0.18909162  0.75951018     0.36200
C900        C  0.46175840  0.19539368  0.81166955    -0.19800
C901        C  0.41343794  0.19704561  0.82962519    -0.25100
C902        C  0.37376566  0.17965173  0.80169161     0.27600
H903        H  0.43226875  0.16342873  0.69432789     0.13300
N904        N  0.50784971  0.19512156  0.73156436    -0.82400
H905        H  0.40720386  0.20430161  0.86797772     0.18200
N906        N  0.32738166  0.17562400  0.82418457    -0.81000
H907        H  0.53276461  0.16774028  0.74081197     0.33800
H908        H  0.52011525  0.23166538  0.73469170     0.38300
H909        H  0.33081950  0.15236214  0.85449467     0.33800
H910        H  0.31683538  0.21100151  0.83669861     0.30500
H911        H  0.38169303  0.17467276  0.62301413     0.33800
H912        H  0.32387886  0.19418429  0.62819902     0.30500
H913        H  0.25948477  0.99185664  0.71252255     0.38300
H914        H  0.29118222  0.99724721  0.76534074     0.33800
C915        C  0.46284868  0.80768791  0.82792382    -0.19900
C916        C  0.41415101  0.79425214  0.83700994     0.36300
C917        C  0.37868004  0.80420660  0.80100080    -0.25900
C918        C  0.39198542  0.82318711  0.75517339     0.02700
C919        C  0.44073783  0.81936364  0.74168462     0.27500
C920        C  0.47568361  0.81186048  0.77788361    -0.25000
N921        N  0.39912303  0.78071719  0.88496930    -0.82400
H922        H  0.34102293  0.80439030  0.81149856     0.13400
C923        C  0.36410306  0.86566755  0.73309150     0.02700
N924        N  0.45485399  0.83173246  0.69275586    -0.81000
H925        H  0.51255661  0.81590143  0.76647137     0.18200
C926        C  0.37960531  0.91310871  0.74642268    -0.25800
C927        C  0.36817378  0.95548463  0.71948772     0.36200
C928        C  0.33677548  0.95268789  0.67825312    -0.19800
C929        C  0.31635194  0.90534958  0.66835734    -0.25100
C930        C  0.33168004  0.86146275  0.69376803     0.27600
H931        H  0.40584230  0.91689974  0.77516293     0.13300
N932        N  0.39186776  0.00094065  0.73274591    -0.82400
H933        H  0.29313568  0.90146711  0.63714880     0.18200
N934        N  0.31675162  0.81278605  0.67799589    -0.81000
H935        H  0.42905440  0.99494254  0.73109964     0.33800
H936        H  0.38325342  0.00928329  0.76903630     0.38300
H937        H  0.29457250  0.81583241  0.64750756     0.33800
H938        H  0.34745955  0.79307804  0.66639073     0.30500
H939        H  0.49228401  0.82985956  0.68870993     0.33800
H940        H  0.44073684  0.80443976  0.66964975     0.30500
H941        H  0.38132803  0.74663681  0.88215677     0.38300
H942        H  0.37428072  0.80741677  0.89771468     0.33800
C943        C  0.10994439  0.45953634  0.88290150    -0.19900
C944        C  0.13855820  0.44772891  0.92456702     0.36300
C945        C  0.11607649  0.43791732  0.96868921    -0.25900
C946        C  0.06618597  0.43945222  0.97337990     0.02700
C947        C  0.03811191  0.43826107  0.93152238     0.27500
C948        C  0.06012645  0.44711508  0.88654138    -0.25000
N949        N  0.19004354  0.44686024  0.92485602    -0.82400
H950        H  0.13742013  0.43597035  0.00120455     0.13400
C951        C  0.04839175  0.46129046  0.01924499     0.02700
N952        N  0.98748356  0.42900230  0.93376236    -0.81000
H953        H  0.03699343  0.44541573  0.85509570     0.18200
C954        C  0.05944142  0.51176806  0.02425033    -0.25800
C955        C  0.08637051  0.52775117  0.06425042     0.36200
C956        C  0.08886787  0.49734774  0.10698512    -0.19800
C957        C  0.06354451  0.45109558  0.10471981    -0.25100
C958        C  0.04708748  0.43156478  0.06062598     0.27600
H959        H  0.06020238  0.53455884  0.99163108     0.13300
N960        N  0.11727072  0.56908656  0.05581986    -0.82400
H961        H  0.06441695  0.42556712  0.13513258     0.18200
N962        N  0.03568063  0.37963534  0.05648950    -0.81000
H963        H  0.13849303  0.56069255  0.02526306     0.33800
H964        H  0.09586847  0.60000948  0.04665235     0.38300
H965        H  0.00767937  0.37216927  0.08089524     0.33800
H966        H  0.06586437  0.35881394  0.06721255     0.30500
H967        H  0.98126933  0.39623050  0.91395330     0.33800
H968        H  0.97691043  0.42148769  0.96956764     0.30500
H969        H  0.20416529  0.48017675  0.91212248     0.38300
H970        H  0.20229176  0.41643590  0.90437573     0.33800
C971        C  0.15698977  0.54976683  0.15863890    -0.19900
C972        C  0.14663254  0.59930522  0.14341273     0.36300
C973        C  0.18505185  0.62854234  0.12474029    -0.25900
C974        C  0.23326070  0.61236955  0.12980937     0.02700
C975        C  0.24260906  0.57290860  0.16202898     0.27500
C976        C  0.20414189  0.54318747  0.17759592    -0.25000
N977        N  0.09897207  0.62043785  0.14836839    -0.82400
H978        H  0.17727849  0.66236347  0.10462195     0.13400
C979        C  0.27100763  0.62631713  0.09336063     0.02700
N980        N  0.29127076  0.56094777  0.17593012    -0.81000
H981        H  0.21248961  0.51201944  0.20073326     0.18200
C982        C  0.30089714  0.66800647  0.09931389    -0.25800
C983        C  0.33876085  0.67794536  0.06576916     0.36200
C984        C  0.34689717  0.64558223  0.02502112    -0.19800
C985        C  0.31521928  0.60497856  0.01938503    -0.25100
C986        C  0.27942473  0.59434033  0.05322823     0.27600
H987        H  0.29510737  0.69274484  0.13021367     0.13300
N988        N  0.36706388  0.72177135  0.07259647    -0.82400
H989        H  0.31937476  0.57993862  0.98840609     0.18200
N990        N  0.25226755  0.54982854  0.04615592    -0.81000
H991        H  0.38305233  0.71966740  0.10692925     0.33800
H992        H  0.34394677  0.75287886  0.07259141     0.38300
H993        H  0.21595150  0.55968513  0.04472097     0.33800
H994        H  0.25735943  0.52669651  0.07616522     0.30500
H995        H  0.29191137  0.53047653  0.19962307     0.33800
H996        H  0.31042166  0.54973850  0.14481600     0.30500
H997        H  0.07391281  0.59942905  0.12943193     0.38300
H998        H  0.09788876  0.65661499  0.13414832     0.33800
C999        C  0.35094141  0.66282968  0.93643167    -0.19900
C1000       C  0.30931300  0.69445375  0.94004847     0.36300
C1001       C  0.26648737  0.68248590  0.91431781    -0.25900
C1002       C  0.26478566  0.64111524  0.88225621     0.02700
C1003       C  0.30902298  0.61868127  0.86943958     0.27500
C1004       C  0.35076431  0.62981320  0.89562767    -0.25000
N1005       N  0.30903359  0.73629436  0.97274445    -0.82400
H1006       H  0.23399547  0.70402013  0.92151931     0.13400
C1007       C  0.21819758  0.61596460  0.86791578     0.02700
N1008       N  0.31173360  0.58140699  0.83185847    -0.81000
H1009       H  0.38109160  0.60794752  0.88438923     0.18200
C1010       C  0.20981198  0.60209802  0.81905679    -0.25800
C1011       C  0.17832691  0.56238929  0.80675936     0.36200
C1012       C  0.15498352  0.53520719  0.84458749    -0.19800
C1013       C  0.15462106  0.55801910  0.89128035    -0.25100
C1014       C  0.18709768  0.59588561  0.90366802     0.27600
H1015       H  0.23116735  0.61922103  0.79067081     0.13300
N1016       N  0.17452444  0.54647133  0.75656788    -0.82400
H1017       H  0.13201848  0.54404512  0.92017895     0.18200
N1018       N  0.19005906  0.61019271  0.95385181    -0.81000
H1019       H  0.19796614  0.56695234  0.73467966     0.33800
H1020       H  0.18552777  0.50945279  0.75209288     0.38300
H1021       H  0.18158562  0.64818495  0.95706912     0.33800
H1022       H  0.22527566  0.60406294  0.96560157     0.30500
H1023       H  0.33535209  0.59405834  0.80494042     0.33800
H1024       H  0.32686053  0.54898826  0.84673325     0.30500
H1025       H  0.30181677  0.76840653  0.95239189     0.38300
H1026       H  0.28062767  0.73190051  0.99745509     0.33800
C1027       C  0.41586781  0.60494511  0.97590757    -0.19900
C1028       C  0.41945554  0.56532436  0.01020714     0.36300
C1029       C  0.43820340  0.51938232  0.99420511    -0.25900
C1030       C  0.44968854  0.51271649  0.94482695     0.02700
C1031       C  0.46010569  0.55473052  0.91670746     0.27500
C1032       C  0.44773773  0.60173345  0.93541773    -0.25000
N1033       N  0.40441271  0.57114970  0.06021715    -0.82400
H1034       H  0.43532811  0.48702349  0.01758686     0.13400
C1035       C  0.42907728  0.46814664  0.92250072     0.02700
N1036       N  0.47752809  0.55030486  0.86767185    -0.81000
H1037       H  0.45388135  0.63427854  0.91290536     0.18200
C1038       C  0.37890615  0.46430457  0.92543079    -0.25800
C1039       C  0.35816845  0.41863851  0.93745811     0.36200
C1040       C  0.38827722  0.37645416  0.94546831    -0.19800
C1041       C  0.43562327  0.37895468  0.92566159    -0.25100
C1042       C  0.45664121  0.42498194  0.91615683     0.27600
H1043       H  0.35675022  0.49795145  0.92672249     0.13300
N1044       N  0.30752179  0.41672813  0.94596829    -0.82400
H1045       H  0.45805749  0.34608065  0.92076900     0.18200
N1046       N  0.50635446  0.42779685  0.90322003    -0.81000
H1047       H  0.29050088  0.42567332  0.91329399     0.33800
H1048       H  0.29924265  0.44522991  0.97073352     0.38300
H1049       H  0.52521814  0.40726347  0.92914023     0.33800
H1050       H  0.51103563  0.40928108  0.86986653     0.30500
H1051       H  0.45281758  0.52963870  0.84744800     0.33800
H1052       H  0.51004465  0.53031509  0.86826351     0.30500
H1053       H  0.42424569  0.59995446  0.07594642     0.38300
H1054       H  0.41190131  0.53880162  0.08013002     0.33800
C1055       C  0.34892154  0.34178406  0.02378858    -0.19900
C1056       C  0.32548254  0.30629112  0.05400565     0.36300
C1057       C  0.29369992  0.32377208  0.09133954    -0.25900
C1058       C  0.29160510  0.37473527  0.10395560     0.02700
C1059       C  0.32791323  0.40568681  0.08518160     0.27500
C1060       C  0.35584729  0.38936058  0.04527145    -0.25000
N1061       N  0.33089390  0.25343055  0.04483151    -0.82400
H1062       H  0.26841604  0.29835807  0.10793462     0.13400
C1063       C  0.24468220  0.39857150  0.11911334     0.02700
N1064       N  0.33343607  0.45542952  0.10366509    -0.81000
H1065       H  0.38131679  0.41534327  0.03014344     0.18200
C1066       C  0.22528386  0.39815007  0.16676057    -0.25800
C1067       C  0.18281746  0.42649176  0.17892144     0.36200
C1068       C  0.16013477  0.45714581  0.14311417    -0.19800
C1069       C  0.18036101  0.45473788  0.09571408    -0.25100
C1070       C  0.21961915  0.42482707  0.08338172     0.27600
H1071       H  0.24383606  0.37735707  0.19486060     0.13300
N1072       N  0.16593718  0.42710057  0.22819898    -0.82400
H1073       H  0.16760616  0.47898640  0.06728828     0.18200
N1074       N  0.23528920  0.42261430  0.03373686    -0.81000
H1075       H  0.15890029  0.39020227  0.23801772     0.33800
H1076       H  0.19377722  0.43973667  0.25042595     0.38300
H1077       H  0.23831940  0.45905662  0.02090472     0.33800
H1078       H  0.20848285  0.40533791  0.01363402     0.30500
H1079       H  0.32981464  0.48021185  0.07457452     0.33800
H1080       H  0.36860951  0.45854653  0.11665678     0.30500
H1081       H  0.32382701  0.24428926  0.00867921     0.38300
H1082       H  0.30631245  0.23358697  0.06603408     0.33800
C1083       C  0.16894939  0.44112086  0.81633301    -0.19900
C1084       C  0.22070293  0.44603767  0.81538697     0.36300
C1085       C  0.25105352  0.40391371  0.81589919    -0.25900
C1086       C  0.23324450  0.35651319  0.82483238     0.02700
C1087       C  0.18312046  0.34944156  0.81981559     0.27500
C1088       C  0.15205928  0.39130195  0.81225455    -0.25000
N1089       N  0.24455414  0.49261921  0.82057734    -0.82400
H1090       H  0.28946306  0.41005716  0.81896518     0.13400
C1091       C  0.26479389  0.32268221  0.85490681     0.02700
N1092       N  0.16360091  0.30046662  0.82696290    -0.81000
H1093       H  0.11358381  0.38519778  0.81117630     0.18200
C1094       C  0.24823953  0.31221536  0.90164538    -0.25800
C1095       C  0.27981500  0.30589448  0.94090476     0.36200
C1096       C  0.33122172  0.30752658  0.93376319    -0.19800
C1097       C  0.34636763  0.30430693  0.88424170    -0.25100
C1098       C  0.31455296  0.31471513  0.84531129     0.27600
H1099       H  0.21012519  0.31594341  0.90975710     0.13300
N1100       N  0.25750255  0.29979780  0.98729081    -0.82400
H1101       H  0.38450485  0.30197809  0.87598387     0.18200
N1102       N  0.33445913  0.32061508  0.79726075    -0.81000
H1103       H  0.23421600  0.32991020  0.99375481     0.33800
H1104       H  0.23675914  0.26741270  0.98617424     0.38300
H1105       H  0.35115677  0.28682979  0.78742542     0.33800
H1106       H  0.30711421  0.32635956  0.77184351     0.30500
H1107       H  0.12632402  0.30100104  0.82183410     0.33800
H1108       H  0.17844419  0.27668435  0.80039359     0.30500
H1109       H  0.26474578  0.49185793  0.85259004     0.38300
H1110       H  0.26814028  0.49677717  0.79105903     0.33800
loop_ 
_geom_bond_atom_site_label_1 
_geom_bond_atom_site_label_2 
_geom_bond_distance 
_geom_bond_site_symmetry_2 
_ccdc_geom_bond_type 
In1           O3   2.330       .  S
In1           O4   2.223       .  S
In1          O12   2.328       .  S
In1           O6   2.233       .  S
In1           O8   2.256   1_565  S
In1           O9   2.224   1_565  S
In1          O10   2.292   1_565  S
In1          O13   2.330       .  S
C2            O8   1.261       .  A
C2           O10   1.255       .  A
C2           C99   1.519       .  S
O3           C11   1.261       .  A
O4           C11   1.274       .  A
C5           O12   1.263       .  A
C5            O6   1.265       .  A
C5           C80   1.552       .  S
C7            O9   1.271       .  A
C7           O13   1.256   1_545  A
C7           C61   1.554       .  S
C11          C57   1.557       .  S
In14         O16   2.326       .  S
In14         O17   2.271       .  S
In14         O25   2.350       .  S
In14         O19   2.216       .  S
In14         O21   2.240   1_556  S
In14         O22   2.308   1_556  S
In14         O23   2.308       .  S
In14         O26   2.338   1_556  S
C15          O21   1.274   1_556  A
C15          O23   1.260       .  A
C15          C40   1.541       .  S
O16          C24   1.256       .  A
O17          C24   1.271       .  A
C18          O25   1.262       .  A
C18          O19   1.275       .  A
C18          C82   1.564       .  S
C20          O22   1.267       .  A
C20          O26   1.257       .  A
C20          C64   1.571       .  S
C24          C59   1.553       .  S
In27         O29   2.302   1_455  S
In27         O30   2.241   1_455  S
In27         O38   2.310       .  S
In27         O32   2.223       .  S
In27         O34   2.293   1_455  S
In27         O35   2.257       .  S
In27         O36   2.245       .  S
In27         O39   2.331       .  S
C28          O34   1.261       .  A
C28          O36   1.271   1_655  A
C28         C100   1.533       .  S
O29          C37   1.257       .  A
O30          C37   1.266       .  A
C31          O38   1.258       .  A
C31          O32   1.271       .  A
C31          C78   1.544       .  S
C33          O35   1.254       .  A
C33          O39   1.259       .  A
C33          C43   1.538       .  S
C37          C84   1.537       .  S
C40        C1040   1.564       .  S
C40        C1055   1.572   1_556  S
C40        C1096   1.596       .  S
C41          C50   1.541       .  S
C41         C984   1.566   1_556  S
C41         C999   1.600       .  S
C41        C1027   1.556       .  S
C42          C96   1.553       .  S
C42         C943   1.572       .  S
C42        C1012   1.576       .  S
C42        C1083   1.593       .  S
C43         C956   1.579       .  S
C43         C971   1.587       .  S
C43        C1068   1.585       .  S
In44         O46   2.244       .  S
In44         O47   2.301   1_556  S
In44         O55   2.224   1_556  S
In44         O49   2.304   1_556  S
In44         O51   2.208       .  S
In44         O52   2.239   1_556  S
In44         O53   2.305       .  S
In44         O56   2.304       .  S
C45          O51   1.271       .  A
C45          O53   1.259       .  A
C45          C60   1.552       .  S
O46          C54   1.272   1_556  A
O47          C54   1.255       .  A
C48          O55   1.266       .  A
C48          O49   1.259       .  A
C48          C63   1.529       .  S
C50          O52   1.275   1_556  A
C50          O56   1.257       .  A
C54          C83   1.539       .  S
C57         C859   1.550       .  S
C57         C887   1.585   1_565  S
C57         C928   1.578       .  S
C58          C66   1.540   1_565  S
C58         C816   1.588   1_565  S
C58         C844   1.607       .  S
C58         C872   1.554       .  S
C59         C775   1.557       .  S
C59         C803   1.577       .  S
C59         C900   1.601       .  S
C60         C788   1.572       .  S
C60         C831   1.591       .  S
C60         C915   1.586       .  S
C61         C691   1.557       .  S
C61         C719   1.577   1_545  S
C61         C747   1.593       .  S
C62          C69   1.535       .  S
C62         C635   1.599       .  S
C62         C676   1.576   1_545  S
C62         C704   1.561       .  S
C63         C620   1.561       .  S
C63         C663   1.582       .  S
C63         C732   1.608       .  S
C64         C607   1.559       .  S
C64         C648   1.593       .  S
C64         C760   1.597       .  S
In65         O67   2.290   1_545  S
In65         O68   2.205   1_545  S
In65         O76   2.299       .  S
In65         O70   2.277   1_545  S
In65         O72   2.303   1_545  S
In65         O73   2.166       .  S
In65         O74   2.276       .  S
In65         O77   2.318       .  S
C66          O72   1.253   1_545  A
C66          O74   1.271       .  A
O67          C75   1.260       .  A
O68          C75   1.272       .  A
C69          O76   1.254       .  A
C69          O70   1.265   1_545  A
C71          O73   1.268       .  A
C71          O77   1.259       .  A
C71         C102   1.545       .  S
C75          C81   1.534       .  S
C78         C523   1.549       .  S
C78         C551   1.579       .  S
C78         C579   1.585   1_455  S
C79          C90   1.556       .  S
C79         C480   1.582       .  S
C79         C508   1.570   1_455  S
C79         C536   1.554       .  S
C80         C452   1.585       .  S
C80         C467   1.588       .  S
C80         C564   1.602       .  S
C81         C439   1.551       .  S
C81         C495   1.599       .  S
C81         C592   1.566       .  S
C82         C368   1.559       .  S
C82         C383   1.592   1_556  S
C82         C411   1.594       .  S
C83         C312   1.583       .  S
C83         C327   1.575   1_554  S
C83         C355   1.554       .  S
C84         C271   1.553       .  S
C84         C299   1.603       .  S
C84         C396   1.590       .  S
C85          C92   1.544       .  S
C85         C284   1.562       .  S
C85         C340   1.600       .  S
C85         C424   1.588       .  S
In86         O88   2.328       .  S
In86         O89   2.265       .  S
In86         O97   2.262   1_455  S
In86         O91   2.316       .  S
In86         O93   2.249       .  S
In86         O94   2.269   1_455  S
In86         O95   2.269   1_455  S
In86         O98   2.316   1_455  S
C87          O93   1.269       .  A
C87          O95   1.258   1_455  A
C87         C101   1.525   1_455  S
O88          C96   1.258       .  A
O89          C96   1.269       .  A
C90          O97   1.269   1_455  A
C90          O91   1.262       .  A
C92          O94   1.268       .  A
C92          O98   1.259       .  A
C99         C200   1.547       .  S
C99         C215   1.571       .  S
C99         C256   1.571       .  S
C100        C131   1.571       .  S
C100        C172   1.602       .  S
C100        C228   1.592   1_655  S
C101        C103   1.601       .  S
C101        C144   1.561       .  S
C101        C243   1.568   1_655  S
C102        C116   1.584       .  S
C102        C159   1.579       .  S
C102        C187   1.548       .  S
C103        C104   1.432       .  A
C103        C108   1.417       .  A
C104        C105   1.411       .  A
C104        N109   1.436       .  S
C105        C106   1.404       .  A
C105        H110   1.083       .  S
C106        C107   1.415       .  A
C106        C111   1.511       .  S
C107        C108   1.410       .  A
C107        N112   1.437       .  S
C108        H113   1.069       .  S
N109        H129   1.045   1_655  S
N109        H130   1.044   1_655  S
C111        C114   1.411       .  A
C111        C118   1.416       .  A
N112        H127   1.046       .  S
N112        H128   1.045       .  S
C114        C115   1.418       .  A
C114        H119   1.083       .  S
C115        C116   1.427       .  A
C115        N120   1.432       .  S
C116        C117   1.417       .  A
C117        C118   1.394       .  A
C117        H121   1.079       .  S
C118        N122   1.431       .  S
N120        H123   1.045       .  S
N120        H124   1.042       .  S
N122        H125   1.042       .  S
N122        H126   1.040       .  S
C131        C132   1.422       .  A
C131        C136   1.420       .  A
C132        C133   1.392       .  A
C132        N137   1.428       .  S
C133        C134   1.392       .  A
C133        H138   1.079       .  S
C134        C135   1.390       .  A
C134        C139   1.459       .  S
C135        C136   1.401       .  A
C135        N140   1.428       .  S
C136        H141   1.078       .  S
N137        H157   1.044       .  S
N137        H158   1.045       .  S
C139        C142   1.396   1_655  A
C139        C146   1.400       .  A
N140        H155   1.040       .  S
N140        H156   1.044       .  S
C142        C143   1.391       .  A
C142        H147   1.083       .  S
C143        C144   1.427   1_455  A
C143        N148   1.435       .  S
C144        C145   1.413       .  A
C145        C146   1.395       .  A
C145        H149   1.079       .  S
C146        N150   1.431       .  S
N148        H151   1.043       .  S
N148        H152   1.041       .  S
N150        H153   1.045       .  S
N150        H154   1.045       .  S
C159        C160   1.439       .  A
C159        C164   1.422       .  A
C160        C161   1.382       .  A
C160        N165   1.432       .  S
C161        C162   1.390       .  A
C161        H166   1.084       .  S
C162        C163   1.415       .  A
C162        C167   1.502       .  S
C163        C164   1.428       .  A
C163        N168   1.436       .  S
C164        H169   1.080       .  S
N165        H185   1.042       .  S
N165        H186   1.042       .  S
C167        C170   1.399       .  A
C167        C174   1.407       .  A
N168        H183   1.045       .  S
N168        H184   1.046       .  S
C170        C171   1.409       .  A
C170        H175   1.084       .  S
C171        C172   1.427       .  A
C171        N176   1.423       .  S
C172        C173   1.428       .  A
C173        C174   1.418       .  A
C173        H177   1.083       .  S
C174        N178   1.431       .  S
N176        H179   1.047   1_655  S
N176        H180   1.046       .  S
N178        H181   1.046       .  S
N178        H182   1.045       .  S
C187        C188   1.430       .  A
C187        C192   1.408       .  A
C188        C189   1.386       .  A
C188        N193   1.436       .  S
C189        C190   1.394       .  A
C189        H194   1.083   1_545  S
C190        C191   1.415       .  A
C190        C195   1.465   1_655  S
C191        C192   1.384       .  A
C191        N196   1.431   1_655  S
C192        H197   1.073       .  S
N193        H213   1.046       .  S
N193        H214   1.045       .  S
C195        C198   1.403       .  A
C195        C202   1.405       .  A
N196        H211   1.042       .  S
N196        H212   1.045       .  S
C198        C199   1.396       .  A
C198        H203   1.078   1_545  S
C199        C200   1.421       .  A
C199        N204   1.435       .  S
C200        C201   1.414       .  A
C201        C202   1.377       .  A
C201        H205   1.082       .  S
C202        N206   1.434       .  S
N204        H207   1.043   1_545  S
N204        H208   1.045       .  S
N206        H209   1.046       .  S
N206        H210   1.045       .  S
C215        C216   1.420       .  A
C215        C220   1.413       .  A
C216        C217   1.429       .  A
C216        N221   1.430       .  S
C217        C218   1.414       .  A
C217        H222   1.083       .  S
C218        C219   1.401       .  A
C218        C223   1.505       .  S
C219        C220   1.386       .  A
C219        N224   1.429       .  S
C220        H225   1.084       .  S
N221        H241   1.045       .  S
N221        H242   1.046       .  S
C223        C226   1.406       .  A
C223        C230   1.413       .  A
N224        H239   1.043       .  S
N224        H240   1.041       .  S
C226        C227   1.425       .  A
C226        H231   1.083       .  S
C227        C228   1.423       .  A
C227        N232   1.436       .  S
C228        C229   1.420       .  A
C229        C230   1.399       .  A
C229        H233   1.077       .  S
C230        N234   1.438       .  S
N232        H235   1.044       .  S
N232        H236   1.046       .  S
N234        H237   1.044       .  S
N234        H238   1.045       .  S
C243        C244   1.442       .  A
C243        C248   1.420       .  A
C244        C245   1.392       .  A
C244        N249   1.441   1_455  S
C245        C246   1.393       .  A
C245        H250   1.083       .  S
C246        C247   1.404       .  A
C246        C251   1.492       .  S
C247        C248   1.419       .  A
C247        N252   1.427       .  S
C248        H253   1.082       .  S
N249        H269   1.033       .  S
N249        H270   1.046   1_655  S
C251        C254   1.404       .  A
C251        C258   1.406       .  A
N252        H267   1.045       .  S
N252        H268   1.042       .  S
C254        C255   1.419       .  A
C254        H259   1.083       .  S
C255        C256   1.426       .  A
C255        N260   1.436       .  S
C256        C257   1.415       .  A
C257        C258   1.393       .  A
C257        H261   1.065       .  S
C258        N262   1.434       .  S
N260        H263   1.046       .  S
N260        H264   1.045       .  S
N262        H265   1.043       .  S
N262        H266   1.046       .  S
C271        C272   1.432       .  A
C271        C276   1.413       .  A
C272        C273   1.397       .  A
C272        N277   1.428       .  S
C273        C274   1.385       .  A
C273        H278   1.080       .  S
C274        C275   1.402       .  A
C274        C279   1.456   1_554  S
C275        C276   1.384       .  A
C275        N280   1.435       .  S
C276        H281   1.081       .  S
N277        H297   1.045       .  S
N277        H298   1.043   1_655  S
C279        C282   1.397       .  A
C279        C286   1.397       .  A
N280        H295   1.041       .  S
N280        H296   1.045   1_554  S
C282        C283   1.387       .  A
C282        H287   1.083       .  S
C283        C284   1.425       .  A
C283        N288   1.439       .  S
C284        C285   1.416       .  A
C285        C286   1.401       .  A
C285        H289   1.082       .  S
C286        N290   1.436       .  S
N288        H291   1.046       .  S
N288        H292   1.045       .  S
N290        H293   1.046       .  S
N290        H294   1.045       .  S
C299        C300   1.449       .  A
C299        C304   1.429       .  A
C300        C301   1.415       .  A
C300        N305   1.435       .  S
C301        C302   1.399       .  A
C301        H306   1.084       .  S
C302        C303   1.400       .  A
C302        C307   1.506       .  S
C303        C304   1.407       .  A
C303        N308   1.433       .  S
C304        H309   1.065       .  S
N305        H325   1.030       .  S
N305        H326   1.045       .  S
C307        C310   1.396       .  A
C307        C314   1.417       .  A
N308        H323   1.045       .  S
N308        H324   1.045       .  S
C310        C311   1.406       .  A
C310        H315   1.085       .  S
C311        C312   1.434       .  A
C311        N316   1.426       .  S
C312        C313   1.422       .  A
C313        C314   1.416       .  A
C313        H317   1.082       .  S
C314        N318   1.437       .  S
N316        H319   1.046       .  S
N316        H320   1.044   1_554  S
N318        H321   1.045       .  S
N318        H322   1.045       .  S
C327        C328   1.429       .  A
C327        C332   1.411       .  A
C328        C329   1.418       .  A
C328        N333   1.438       .  S
C329        C330   1.411       .  A
C329        H334   1.083       .  S
C330        C331   1.407       .  A
C330        C335   1.511       .  S
C331        C332   1.404       .  A
C331        N336   1.428       .  S
C332        H337   1.076       .  S
N333        H353   1.042       .  S
N333        H354   1.045       .  S
C335        C338   1.398       .  A
C335        C342   1.420       .  A
N336        H351   1.045       .  S
N336        H352   1.040       .  S
C338        C339   1.407       .  A
C338        H343   1.084       .  S
C339        C340   1.428       .  A
C339        N344   1.427       .  S
C340        C341   1.423       .  A
C341        C342   1.418       .  A
C341        H345   1.083       .  S
C342        N346   1.437       .  S
N344        H347   1.046       .  S
N344        H348   1.045       .  S
N346        H349   1.046       .  S
N346        H350   1.045       .  S
C355        C356   1.415       .  A
C355        C360   1.424       .  A
C356        C357   1.389       .  A
C356        N361   1.425       .  S
C357        C358   1.396       .  A
C357        H362   1.082       .  S
C358        C359   1.384       .  A
C358        C363   1.449       .  S
C359        C360   1.387       .  A
C359        N364   1.425       .  S
C360        H365   1.082       .  S
N361        H381   1.046   1_554  S
N361        H382   1.045       .  S
C363        C366   1.381       .  A
C363        C370   1.400   1_554  A
N364        H379   1.045       .  S
N364        H380   1.041       .  S
C366        C367   1.391       .  A
C366        H371   1.084       .  S
C367        C368   1.439   1_554  A
C367        N372   1.434       .  S
C368        C369   1.408       .  A
C369        C370   1.386       .  A
C369        H373   1.062       .  S
C370        N374   1.437       .  S
N372        H375   1.046       .  S
N372        H376   1.046       .  S
N374        H377   1.046       .  S
N374        H378   1.044       .  S
C383        C384   1.425       .  A
C383        C388   1.419       .  A
C384        C385   1.441       .  A
C384        N389   1.435       .  S
C385        C386   1.422       .  A
C385        H390   1.083       .  S
C386        C387   1.403       .  A
C386        C391   1.517       .  S
C387        C388   1.389       .  A
C387        N392   1.436       .  S
C388        H393   1.076   1_554  S
N389        H409   1.045       .  S
N389        H410   1.044       .  S
C391        C394   1.406       .  A
C391        C398   1.411       .  A
N392        H407   1.046   1_554  S
N392        H408   1.044       .  S
C394        C395   1.412       .  A
C394        H399   1.084       .  S
C395        C396   1.431       .  A
C395        N400   1.438       .  S
C396        C397   1.417       .  A
C397        C398   1.422       .  A
C397        H401   1.084       .  S
C398        N402   1.430       .  S
N400        H403   1.043       .  S
N400        H404   1.045       .  S
N402        H405   1.045       .  S
N402        H406   1.046       .  S
C411        C412   1.431       .  A
C411        C416   1.409       .  A
C412        C413   1.410       .  A
C412        N417   1.436       .  S
C413        C414   1.402       .  A
C413        H418   1.084       .  S
C414        C415   1.419       .  A
C414        C419   1.511       .  S
C415        C416   1.426       .  A
C415        N420   1.436       .  S
C416        H421   1.083       .  S
N417        H437   1.044       .  S
N417        H438   1.045       .  S
C419        C422   1.412       .  A
C419        C426   1.406       .  A
N420        H435   1.046       .  S
N420        H436   1.045       .  S
C422        C423   1.426       .  A
C422        H427   1.083       .  S
C423        C424   1.430       .  A
C423        N428   1.428       .  S
C424        C425   1.421       .  A
C425        C426   1.401       .  A
C425        H429   1.084       .  S
C426        N430   1.435       .  S
N428        H431   1.042       .  S
N428        H432   1.045       .  S
N430        H433   1.042       .  S
N430        H434   1.045       .  S
C439        C440   1.424       .  A
C439        C444   1.396       .  A
C440        C441   1.377       .  A
C440        N445   1.434       .  S
C441        C442   1.398       .  A
C441        H446   1.084       .  S
C442        C443   1.416       .  A
C442        C447   1.455   1_655  S
C443        C444   1.387       .  A
C443        N448   1.436       .  S
C444        H449   1.072       .  S
N445        H465   1.041       .  S
N445        H466   1.044       .  S
C447        C450   1.391       .  A
C447        C454   1.392       .  A
N448        H463   1.045       .  S
N448        H464   1.037       .  S
C450        C451   1.389       .  A
C450        H455   1.083       .  S
C451        C452   1.428       .  A
C451        N456   1.425       .  S
C452        C453   1.433       .  A
C453        C454   1.382       .  A
C453        H457   1.070       .  S
C454        N458   1.435       .  S
N456        H459   1.045       .  S
N456        H460   1.046       .  S
N458        H461   1.045   1_455  S
N458        H462   1.041       .  S
C467        C468   1.442       .  A
C467        C472   1.426       .  A
C468        C469   1.397       .  A
C468        N473   1.433       .  S
C469        C470   1.391       .  A
C469        H474   1.085       .  S
C470        C471   1.410       .  A
C470        C475   1.501       .  S
C471        C472   1.427       .  A
C471        N476   1.436       .  S
C472        H477   1.080       .  S
N473        H493   1.044       .  S
N473        H494   1.046       .  S
C475        C478   1.395       .  A
C475        C482   1.410       .  A
N476        H491   1.045       .  S
N476        H492   1.045       .  S
C478        C479   1.409       .  A
C478        H483   1.084       .  S
C479        C480   1.417       .  A
C479        N484   1.415       .  S
C480        C481   1.423       .  A
C481        C482   1.420       .  A
C481        H485   1.075       .  S
C482        N486   1.436       .  S
N484        H487   1.045       .  S
N484        H488   1.041       .  S
N486        H489   1.045       .  S
N486        H490   1.045       .  S
C495        C496   1.421       .  A
C495        C500   1.418       .  A
C496        C497   1.409       .  A
C496        N501   1.432       .  S
C497        C498   1.407       .  A
C497        H502   1.082       .  S
C498        C499   1.420       .  A
C498        C503   1.525       .  S
C499        C500   1.419       .  A
C499        N504   1.429       .  S
C500        H505   1.083       .  S
N501        H521   1.046       .  S
N501        H522   1.046       .  S
C503        C506   1.418       .  A
C503        C510   1.423       .  A
N504        H519   1.046       .  S
N504        H520   1.045       .  S
C506        C507   1.421       .  A
C506        H511   1.083       .  S
C507        C508   1.414       .  A
C507        N512   1.436       .  S
C508        C509   1.413       .  A
C509        C510   1.399       .  A
C509        H513   1.083       .  S
C510        N514   1.429       .  S
N512        H515   1.045       .  S
N512        H516   1.045       .  S
N514        H517   1.040       .  S
N514        H518   1.043       .  S
C523        C524   1.436       .  A
C523        C528   1.406   1_455  A
C524        C525   1.392       .  A
C524        N529   1.433       .  S
C525        C526   1.385       .  A
C525        H530   1.082       .  S
C526        C527   1.405   1_455  A
C526        C531   1.462       .  S
C527        C528   1.387       .  A
C527        N532   1.431       .  S
C528        H533   1.072       .  S
N529        H549   1.046       .  S
N529        H550   1.046       .  S
C531        C534   1.389       .  A
C531        C538   1.399       .  A
N532        H547   1.045       .  S
N532        H548   1.045       .  S
C534        C535   1.385       .  A
C534        H539   1.084       .  S
C535        C536   1.424       .  A
C535        N540   1.428       .  S
C536        C537   1.418       .  A
C537        C538   1.392       .  A
C537        H541   1.081       .  S
C538        N542   1.426       .  S
N540        H543   1.044       .  S
N540        H544   1.047   1_455  S
N542        H545   1.042       .  S
N542        H546   1.045       .  S
C551        C552   1.421       .  A
C551        C556   1.422       .  A
C552        C553   1.428       .  A
C552        N557   1.428       .  S
C553        C554   1.413       .  A
C553        H558   1.083       .  S
C554        C555   1.401       .  A
C554        C559   1.501       .  S
C555        C556   1.392       .  A
C555        N560   1.434       .  S
C556        H561   1.083       .  S
N557        H577   1.045       .  S
N557        H578   1.044       .  S
C559        C562   1.401       .  A
C559        C566   1.419       .  A
N560        H575   1.046       .  S
N560        H576   1.045       .  S
C562        C563   1.408       .  A
C562        H567   1.083       .  S
C563        C564   1.423       .  A
C563        N568   1.434       .  S
C564        C565   1.419       .  A
C565        C566   1.419       .  A
C565        H569   1.082       .  S
C566        N570   1.436       .  S
N568        H571   1.046       .  S
N568        H572   1.036       .  S
N570        H573   1.045       .  S
N570        H574   1.043       .  S
C579        C580   1.422       .  A
C579        C584   1.419       .  A
C580        C581   1.414       .  A
C580        N585   1.428       .  S
C581        C582   1.403       .  A
C581        H586   1.083       .  S
C582        C583   1.408       .  A
C582        C587   1.495       .  S
C583        C584   1.411       .  A
C583        N588   1.436       .  S
C584        H589   1.082       .  S
N585        H605   1.044       .  S
N585        H606   1.045       .  S
C587        C590   1.395       .  A
C587        C594   1.421       .  A
N588        H603   1.045       .  S
N588        H604   1.046       .  S
C590        C591   1.392       .  A
C590        H595   1.083       .  S
C591        C592   1.427       .  A
C591        N596   1.436       .  S
C592        C593   1.414       .  A
C593        C594   1.422       .  A
C593        H597   1.081       .  S
C594        N598   1.436       .  S
N596        H599   1.040       .  S
N596        H600   1.046       .  S
N598        H601   1.045       .  S
N598        H602   1.045       .  S
C607        C608   1.428       .  A
C607        C612   1.418       .  A
C608        C609   1.389       .  A
C608        N613   1.434       .  S
C609        C610   1.395       .  A
C609        H614   1.081       .  S
C610        C611   1.406       .  A
C610        C615   1.453   1_545  S
C611        C612   1.385       .  A
C611        N616   1.435       .  S
C612        H617   1.076       .  S
N613        H633   1.046       .  S
N613        H634   1.042       .  S
C615        C618   1.391       .  A
C615        C622   1.398       .  A
N616        H631   1.044   1_545  S
N616        H632   1.045   1_545  S
C618        C619   1.381       .  A
C618        H623   1.085       .  S
C619        C620   1.429       .  A
C619        N624   1.430       .  S
C620        C621   1.416       .  A
C621        C622   1.396       .  A
C621        H625   1.079       .  S
C622        N626   1.430       .  S
N624        H627   1.043       .  S
N624        H628   1.045       .  S
N626        H629   1.045   1_554  S
N626        H630   1.045       .  S
C635        C636   1.432       .  A
C635        C640   1.420       .  A
C636        C637   1.420       .  A
C636        N641   1.431       .  S
C637        C638   1.410       .  A
C637        H642   1.082       .  S
C638        C639   1.405       .  A
C638        C643   1.521       .  S
C639        C640   1.408       .  A
C639        N644   1.429       .  S
C640        H645   1.067       .  S
N641        H661   1.045       .  S
N641        H662   1.039       .  S
C643        C646   1.409       .  A
C643        C650   1.408       .  A
N644        H659   1.041       .  S
N644        H660   1.045       .  S
C646        C647   1.420       .  A
C646        H651   1.083       .  S
C647        C648   1.437       .  A
C647        N652   1.439       .  S
C648        C649   1.424       .  A
C649        C650   1.411       .  A
C649        H653   1.073       .  S
C650        N654   1.437       .  S
N652        H655   1.046       .  S
N652        H656   1.039       .  S
N654        H657   1.045       .  S
N654        H658   1.044       .  S
C663        C664   1.419       .  A
C663        C668   1.426       .  A
C664        C665   1.386       .  A
C664        N669   1.424       .  S
C665        C666   1.391       .  A
C665        H670   1.086       .  S
C666        C667   1.420       .  A
C666        C671   1.517       .  S
C667        C668   1.441       .  A
C667        N672   1.434       .  S
C668        H673   1.081       .  S
N669        H689   1.043       .  S
N669        H690   1.046       .  S
C671        C674   1.413       .  A
C671        C678   1.414       .  A
N672        H687   1.044       .  S
N672        H688   1.046       .  S
C674        C675   1.436       .  A
C674        H679   1.083       .  S
C675        C676   1.431       .  A
C675        N680   1.435       .  S
C676        C677   1.413       .  A
C677        C678   1.391       .  A
C677        H681   1.079   1_565  S
C678        N682   1.440       .  S
N680        H683   1.043       .  S
N680        H684   1.044       .  S
N682        H685   1.046   1_565  S
N682        H686   1.042       .  S
C691        C692   1.426   1_545  A
C691        C696   1.399       .  A
C692        C693   1.396       .  A
C692        N697   1.433       .  S
C693        C694   1.400   1_565  A
C693        H698   1.084       .  S
C694        C695   1.412       .  A
C694        C699   1.468       .  S
C695        C696   1.383       .  A
C695        N700   1.431       .  S
C696        H701   1.061       .  S
N697        H717   1.045       .  S
N697        H718   1.042       .  S
C699        C702   1.390   1_545  A
C699        C706   1.401       .  A
N700        H715   1.042       .  S
N700        H716   1.043       .  S
C702        C703   1.377       .  A
C702        H707   1.084       .  S
C703        C704   1.434   1_565  A
C703        N708   1.428       .  S
C704        C705   1.423       .  A
C705        C706   1.404       .  A
C705        H709   1.084       .  S
C706        N710   1.436       .  S
N708        H711   1.038       .  S
N708        H712   1.045       .  S
N710        H713   1.045       .  S
N710        H714   1.045       .  S
C719        C720   1.427       .  A
C719        C724   1.420       .  A
C720        C721   1.394       .  A
C720        N725   1.433   1_565  S
C721        C722   1.394       .  A
C721        H726   1.080       .  S
C722        C723   1.417       .  A
C722        C727   1.510       .  S
C723        C724   1.425       .  A
C723        N728   1.431       .  S
C724        H729   1.078       .  S
N725        H745   1.045       .  S
N725        H746   1.046       .  S
C727        C730   1.409       .  A
C727        C734   1.409       .  A
N728        H743   1.045       .  S
N728        H744   1.045       .  S
C730        C731   1.424       .  A
C730        H735   1.083       .  S
C731        C732   1.429       .  A
C731        N736   1.432       .  S
C732        C733   1.422       .  A
C733        C734   1.407       .  A
C733        H737   1.065       .  S
C734        N738   1.438       .  S
N736        H739   1.045       .  S
N736        H740   1.046       .  S
N738        H741   1.046       .  S
N738        H742   1.045       .  S
C747        C748   1.430       .  A
C747        C752   1.413       .  A
C748        C749   1.414       .  A
C748        N753   1.436       .  S
C749        C750   1.405       .  A
C749        H754   1.083       .  S
C750        C751   1.426       .  A
C750        C755   1.520       .  S
C751        C752   1.420       .  A
C751        N756   1.436       .  S
C752        H757   1.084       .  S
N753        H773   1.044       .  S
N753        H774   1.045       .  S
C755        C758   1.410       .  A
C755        C762   1.402       .  A
N756        H771   1.045       .  S
N756        H772   1.045       .  S
C758        C759   1.431       .  A
C758        H763   1.083       .  S
C759        C760   1.424       .  A
C759        N764   1.420       .  S
C760        C761   1.423       .  A
C761        C762   1.402       .  A
C761        H765   1.078       .  S
C762        N766   1.425       .  S
N764        H767   1.045       .  S
N764        H768   1.045       .  S
N766        H769   1.046       .  S
N766        H770   1.042       .  S
C775        C776   1.421       .  A
C775        C780   1.426       .  A
C776        C777   1.386       .  A
C776        N781   1.430       .  S
C777        C778   1.395       .  A
C777        H782   1.086       .  S
C778        C779   1.397       .  A
C778        C783   1.451   1_545  S
C779        C780   1.390       .  A
C779        N784   1.437       .  S
C780        H785   1.081       .  S
N781        H801   1.046       .  S
N781        H802   1.045       .  S
C783        C786   1.392       .  A
C783        C790   1.389       .  A
N784        H799   1.046       .  S
N784        H800   1.042       .  S
C786        C787   1.392       .  A
C786        H791   1.080       .  S
C787        C788   1.431       .  A
C787        N792   1.436       .  S
C788        C789   1.418       .  A
C789        C790   1.392       .  A
C789        H793   1.059       .  S
C790        N794   1.439       .  S
N792        H795   1.046       .  S
N792        H796   1.045       .  S
N794        H797   1.045       .  S
N794        H798   1.045       .  S
C803        C804   1.422       .  A
C803        C808   1.415       .  A
C804        C805   1.428       .  A
C804        N809   1.436       .  S
C805        C806   1.412       .  A
C805        H810   1.083       .  S
C806        C807   1.408       .  A
C806        C811   1.510       .  S
C807        C808   1.409       .  A
C807        N812   1.434       .  S
C808        H813   1.081       .  S
N809        H829   1.045       .  S
N809        H830   1.046       .  S
C811        C814   1.409       .  A
C811        C818   1.403       .  A
N812        H827   1.044       .  S
N812        H828   1.045       .  S
C814        C815   1.421       .  A
C814        H819   1.083       .  S
C815        C816   1.432       .  A
C815        N820   1.439       .  S
C816        C817   1.419       .  A
C817        C818   1.406       .  A
C817        H821   1.083       .  S
C818        N822   1.427       .  S
N820        H823   1.045       .  S
N820        H824   1.043       .  S
N822        H825   1.046       .  S
N822        H826   1.038       .  S
C831        C832   1.431       .  A
C831        C836   1.417       .  A
C832        C833   1.429       .  A
C832        N837   1.429       .  S
C833        C834   1.411       .  A
C833        H838   1.083       .  S
C834        C835   1.407       .  A
C834        C839   1.513       .  S
C835        C836   1.391       .  A
C835        N840   1.430       .  S
C836        H841   1.078       .  S
N837        H857   1.046       .  S
N837        H858   1.046       .  S
C839        C842   1.404       .  A
C839        C846   1.402       .  A
N840        H855   1.043       .  S
N840        H856   1.044       .  S
C842        C843   1.420       .  A
C842        H847   1.083       .  S
C843        C844   1.443       .  A
C843        N848   1.433       .  S
C844        C845   1.424       .  A
C845        C846   1.408       .  A
C845        H849   1.060       .  S
C846        N850   1.434       .  S
N848        H851   1.044       .  S
N848        H852   1.038       .  S
N850        H853   1.045       .  S
N850        H854   1.045       .  S
C859        C860   1.437       .  A
C859        C864   1.409   1_565  A
C860        C861   1.387       .  A
C860        N865   1.433       .  S
C861        C862   1.380       .  A
C861        H866   1.084       .  S
C862        C863   1.398   1_565  A
C862        C867   1.446       .  S
C863        C864   1.385       .  A
C863        N868   1.429       .  S
C864        H869   1.073       .  S
N865        H885   1.043       .  S
N865        H886   1.046       .  S
C867        C870   1.385       .  A
C867        C874   1.401       .  A
N868        H883   1.045       .  S
N868        H884   1.044       .  S
C870        C871   1.392       .  A
C870        H875   1.082       .  S
C871        C872   1.434       .  A
C871        N876   1.431       .  S
C872        C873   1.412       .  A
C873        C874   1.382       .  A
C873        H877   1.079       .  S
C874        N878   1.438       .  S
N876        H879   1.046       .  S
N876        H880   1.045       .  S
N878        H881   1.045       .  S
N878        H882   1.043       .  S
C887        C888   1.428       .  A
C887        C892   1.412       .  A
C888        C889   1.414       .  A
C888        N893   1.437       .  S
C889        C890   1.409       .  A
C889        H894   1.081       .  S
C890        C891   1.421       .  A
C890        C895   1.524       .  S
C891        C892   1.418       .  A
C891        N896   1.432       .  S
C892        H897   1.083       .  S
N893        H913   1.044   1_545  S
N893        H914   1.045   1_545  S
C895        C898   1.396       .  A
C895        C902   1.415       .  A
N896        H911   1.046       .  S
N896        H912   1.045       .  S
C898        C899   1.402       .  A
C898        H903   1.083       .  S
C899        C900   1.443       .  A
C899        N904   1.421       .  S
C900        C901   1.427       .  A
C901        C902   1.426       .  A
C901        H905   1.082       .  S
C902        N906   1.431       .  S
N904        H907   1.036       .  S
N904        H908   1.042       .  S
N906        H909   1.046       .  S
N906        H910   1.043       .  S
C915        C916   1.424       .  A
C915        C920   1.422       .  A
C916        C917   1.423       .  A
C916        N921   1.428       .  S
C917        C918   1.408       .  A
C917        H922   1.083       .  S
C918        C919   1.404       .  A
C918        C923   1.501       .  S
C919        C920   1.406       .  A
C919        N924   1.438       .  S
C920        H925   1.076       .  S
N921        H941   1.044       .  S
N921        H942   1.045       .  S
C923        C926   1.392       .  A
C923        C930   1.414       .  A
N924        H939   1.045       .  S
N924        H940   1.045       .  S
C926        C927   1.391       .  A
C926        H931   1.082       .  S
C927        C928   1.434       .  A
C927        N932   1.435   1_565  S
C928        C929   1.418       .  A
C929        C930   1.431       .  A
C929        H933   1.080       .  S
C930        N934   1.436       .  S
N932        H935   1.044   1_545  S
N932        H936   1.046       .  S
N934        H937   1.045       .  S
N934        H938   1.045       .  S
C943        C944   1.431       .  A
C943        C948   1.429       .  A
C944        C945   1.387       .  A
C944        N949   1.430       .  S
C945        C946   1.391       .  A
C945        H950   1.075   1_556  S
C946        C947   1.392       .  A
C946        C951   1.466   1_556  S
C947        C948   1.397       .  A
C947        N952   1.431   1_455  S
C948        H953   1.080       .  S
N949        H969   1.039       .  S
N949        H970   1.040       .  S
C951        C954   1.394       .  A
C951        C958   1.390       .  A
N952        H967   1.045       .  S
N952        H968   1.045       .  S
C954        C955   1.399       .  A
C954        H959   1.086   1_554  S
C955        C956   1.432       .  A
C955        N960   1.426       .  S
C956        C957   1.431       .  A
C957        C958   1.397       .  A
C957        H961   1.082       .  S
C958        N962   1.432       .  S
N960        H963   1.045       .  S
N960        H964   1.046       .  S
N962        H965   1.045       .  S
N962        H966   1.046       .  S
C971        C972   1.419       .  A
C971        C976   1.421       .  A
C972        C973   1.424       .  A
C972        N977   1.439       .  S
C973        C974   1.411       .  A
C973        H978   1.083       .  S
C974        C975   1.404       .  A
C974        C979   1.497       .  S
C975        C976   1.404       .  A
C975        N980   1.439       .  S
C976        H981   1.075       .  S
N977        H997   1.039       .  S
N977        H998   1.046       .  S
C979        C982   1.406       .  A
C979        C986   1.408       .  A
N980        H995   1.045       .  S
N980        H996   1.045       .  S
C982        C983   1.422       .  A
C982        H987   1.083       .  S
C983        C984   1.426       .  A
C983        N988   1.430       .  S
C984        C985   1.413       .  A
C985        C986   1.390       .  A
C985        H989   1.084   1_554  S
C986        N990   1.429       .  S
N988        H991   1.045       .  S
N988        H992   1.046       .  S
N990        H993   1.041       .  S
N990        H994   1.042       .  S
C999       C1000   1.428       .  A
C999       C1004   1.423       .  A
C1000      C1001   1.425       .  A
C1000      N1005   1.431       .  S
C1001      C1002   1.411       .  A
C1001      H1006   1.082       .  S
C1002      C1003   1.404       .  A
C1002      C1007   1.517       .  S
C1003      C1004   1.401       .  A
C1003      N1008   1.432       .  S
C1004      H1009   1.064       .  S
N1005      H1025   1.045       .  S
N1005      H1026   1.046       .  S
C1007      C1010   1.411       .  A
C1007      C1014   1.416       .  A
N1008      H1023   1.045       .  S
N1008      H1024   1.046       .  S
C1010      C1011   1.423       .  A
C1010      H1015   1.083       .  S
C1011      C1012   1.428       .  A
C1011      N1016   1.444       .  S
C1012      C1013   1.416       .  A
C1013      C1014   1.405       .  A
C1013      H1017   1.080       .  S
C1014      N1018   1.431       .  S
N1016      H1019   1.045       .  S
N1016      H1020   1.040       .  S
N1018      H1021   1.044       .  S
N1018      H1022   1.043       .  S
C1027      C1028   1.424   1_556  A
C1027      C1032   1.419       .  A
C1028      C1029   1.397   1_554  A
C1028      N1033   1.440       .  S
C1029      C1030   1.401       .  A
C1029      H1034   1.084   1_556  S
C1030      C1031   1.399       .  A
C1030      C1035   1.461       .  S
C1031      C1032   1.394       .  A
C1031      N1036   1.432       .  S
C1032      H1037   1.085       .  S
N1033      H1053   1.045       .  S
N1033      H1054   1.046       .  S
C1035      C1038   1.400       .  A
C1035      C1042   1.388       .  A
N1036      H1051   1.046       .  S
N1036      H1052   1.045       .  S
C1038      C1039   1.396       .  A
C1038      H1043   1.085       .  S
C1039      C1040   1.416       .  A
C1039      N1044   1.426       .  S
C1040      C1041   1.423       .  A
C1041      C1042   1.393       .  A
C1041      H1045   1.080       .  S
C1042      N1046   1.427       .  S
N1044      H1047   1.044       .  S
N1044      H1048   1.042       .  S
N1046      H1049   1.041       .  S
N1046      H1050   1.045       .  S
C1055      C1056   1.424       .  A
C1055      C1060   1.415       .  A
C1056      C1057   1.423       .  A
C1056      N1061   1.441       .  S
C1057      C1058   1.405       .  A
C1057      H1062   1.083       .  S
C1058      C1059   1.409       .  A
C1058      C1063   1.501       .  S
C1059      C1060   1.404       .  A
C1059      N1064   1.431       .  S
C1060      H1065   1.080       .  S
N1061      H1081   1.041       .  S
N1061      H1082   1.046       .  S
C1063      C1066   1.412       .  A
C1063      C1070   1.394       .  A
N1064      H1079   1.045       .  S
N1064      H1080   1.046       .  S
C1066      C1067   1.432       .  A
C1066      H1071   1.083       .  S
C1067      C1068   1.428       .  A
C1067      N1072   1.429       .  S
C1068      C1069   1.415       .  A
C1069      C1070   1.385       .  A
C1069      H1073   1.076       .  S
C1070      N1074   1.429       .  S
N1072      H1075   1.045       .  S
N1072      H1076   1.045       .  S
N1074      H1077   1.042       .  S
N1074      H1078   1.040       .  S
C1083      C1084   1.445       .  A
C1083      C1088   1.421       .  A
C1084      C1085   1.400       .  A
C1084      N1089   1.424       .  S
C1085      C1086   1.388       .  A
C1085      H1090   1.085       .  S
C1086      C1087   1.414       .  A
C1086      C1091   1.506       .  S
C1087      C1088   1.423       .  A
C1087      N1092   1.437       .  S
C1088      H1093   1.083       .  S
N1089      H1109   1.045       .  S
N1089      H1110   1.046       .  S
C1091      C1094   1.391       .  A
C1091      C1098   1.419       .  A
N1092      H1107   1.045       .  S
N1092      H1108   1.045       .  S
C1094      C1095   1.403       .  A
C1094      H1099   1.084       .  S
C1095      C1096   1.441       .  A
C1095      N1100   1.424       .  S
C1096      C1097   1.423       .  A
C1097      C1098   1.417       .  A
C1097      H1101   1.083       .  S
C1098      N1102   1.437       .  S
N1100      H1103   1.042       .  S
N1100      H1104   1.046       .  S
N1102      H1105   1.045       .  S
N1102      H1106   1.045       .  S
