geometry optimzed in LAMMPS
_audit_creation_date              2020-11-30 
_audit_creation_method            'lammps2cif' 
_symmetry_space_group_name_H-M    'P1' 
_symmetry_Int_Tables_number       1 
_symmetry_cell_setting            triclinic 
loop_ 
_symmetry_equiv_pos_as_xyz 
  x,y,z 
_cell_length_a                    30.26595907 
_cell_length_b                    30.41899256055401 
_cell_length_c                    33.34748081749638 
_cell_angle_alpha                 89.92545578243532 
_cell_angle_beta                  98.98279959055135 
_cell_angle_gamma                 89.93181424133957 
loop_ 
_atom_site_label 
_atom_site_type_symbol 
_atom_site_fract_x 
_atom_site_fract_y 
_atom_site_fract_z 
_atom_site_charge 
O1          O  0.47485553  0.00408855  0.06054466    -0.73200
O2          O  0.46153836  0.96624672  0.94392951    -0.74200
O3          O  0.50172729  0.92977415  0.01981720    -0.62800
O4          O  0.43496508  0.04085767  0.98591044    -0.71200
O5          O  0.99859496  0.07378967  0.97935657    -0.70800
O6          O  0.06503388  0.96087880  0.01052817    -0.62000
O7          O  0.02468185  0.00044718  0.93684518    -0.74500
O8          O  0.03976618  0.03522141  0.05413443    -0.73300
Cu9        Cu  0.46606389  0.98408808  0.00269308     1.04600
Cu10       Cu  0.03428599  0.01878314  0.99510353     1.04300
C11         C  0.00979694  0.02533277  0.07567324     0.91000
C12         C  0.49066527  0.97773333  0.92200798     0.92100
C13         C  0.04390005  0.92716289  0.02032905     0.84300
C14         C  0.45607055  0.07504064  0.97729013     0.90500
N15         N  0.28752501  0.38160605  0.80333387    -0.27600
N16         N  0.27534090  0.42140792  0.81311993    -0.35400
C17         C  0.26766735  0.44635868  0.77947471     0.00800
C18         C  0.27544132  0.42088251  0.74705846     0.06800
C19         C  0.28796866  0.38004212  0.76312539    -0.06300
H20         H  0.25703878  0.48029997  0.77865332     0.07500
H21         H  0.29662861  0.35137465  0.74683985     0.08700
Cu22       Cu  0.26902845  0.43962320  0.87149454     0.44200
Cu23       Cu  0.30387877  0.33196968  0.84537600     0.42000
Cu24       Cu  0.29873638  0.35882901  0.95100246     0.43900
N25         N  0.26284219  0.45022574  0.93143506    -0.34900
N26         N  0.27365073  0.42104516  0.96075853    -0.29200
C27         C  0.26546262  0.43854696  0.99593596    -0.05300
C28         C  0.24863459  0.48060134  0.98814228     0.06900
C29         C  0.24742473  0.48685883  0.94698188     0.00700
H30         H  0.27132908  0.42186364  0.02498764     0.08400
H31         H  0.23631906  0.51589702  0.92953551     0.07400
N32         N  0.32321190  0.29966554  0.93192477    -0.36400
N33         N  0.32479121  0.29014454  0.89347889    -0.28600
C34         C  0.34462114  0.25084646  0.89141282    -0.03800
C35         C  0.35604747  0.23469647  0.93038341     0.04800
C36         C  0.34190525  0.26640764  0.95534306     0.02900
H37         H  0.35156999  0.23582773  0.86368480     0.08000
H38         H  0.34604835  0.26589080  0.98816192     0.06800
N39         N  0.20841732  0.62064024  0.20141438    -0.27600
N40         N  0.21938953  0.58011158  0.19255665    -0.35400
C41         C  0.22694533  0.55619231  0.22683749     0.00800
C42         C  0.22041977  0.58302672  0.25872755     0.06800
C43         C  0.20877986  0.62367661  0.24171740    -0.06300
H44         H  0.23603124  0.52184172  0.22836457     0.07500
H45         H  0.20039994  0.65292560  0.25729113     0.08700
Cu46       Cu  0.22256675  0.55845954  0.13444573     0.44200
Cu47       Cu  0.19062687  0.66885435  0.15791076     0.42000
Cu48       Cu  0.18751964  0.63563613  0.05299480     0.43900
N49         N  0.22419556  0.54467170  0.07411182    -0.34900
N50         N  0.21166724  0.57281263  0.04423470    -0.29200
C51         C  0.21802875  0.55417715  0.00901992    -0.05300
C52         C  0.23534974  0.51240154  0.01725430     0.06900
C53         C  0.23875058  0.50743987  0.05879843     0.00700
H54         H  0.21096045  0.57009225  0.97964789     0.08400
H55         H  0.25142800  0.47919685  0.07669897     0.07400
N56         N  0.16540111  0.69653070  0.07039675    -0.36400
N57         N  0.16730431  0.70874574  0.10869411    -0.28600
C58         C  0.14967672  0.74925574  0.10983946    -0.03800
C59         C  0.13598157  0.76318570  0.07040874     0.04800
C60         C  0.14635640  0.72900446  0.04614322     0.02900
H61         H  0.14613334  0.76683637  0.13733131     0.08000
H62         H  0.13994912  0.72761238  0.01332836     0.06800
O63         O  0.27268613  0.50660670  0.44126791    -0.73200
O64         O  0.28522808  0.46626703  0.55659818    -0.74200
O65         O  0.24874760  0.43003186  0.48128605    -0.62800
O66         O  0.30933764  0.54392722  0.51687485    -0.71200
O67         O  0.24345809  0.57389069  0.52143232    -0.70800
O68         O  0.18292294  0.45934892  0.48620300    -0.62000
O69         O  0.22082972  0.49728852  0.56265914    -0.74500
O70         O  0.20651269  0.53592738  0.44619342    -0.73300
Cu71       Cu  0.28126085  0.48572505  0.49889836     1.04600
Cu72       Cu  0.21110155  0.51759415  0.50442081     1.04300
C73         C  0.23762036  0.52747962  0.42550524     0.93000
C74         C  0.25521422  0.47519247  0.57823745     0.92100
C75         C  0.20624880  0.42663017  0.47758271     0.84300
C76         C  0.28589994  0.57714395  0.52411966     0.90500
N77         N  0.05790812  0.11073821  0.30174622    -0.27600
N78         N  0.04254478  0.07204621  0.31105035    -0.35400
C79         C  0.03014799  0.04904181  0.27679992     0.00800
C80         C  0.03837197  0.07452475  0.24442261     0.06800
C81         C  0.05599926  0.11344622  0.26127044    -0.06300
H82         H  0.01646938  0.01622398  0.27558365     0.07500
H83         H  0.06692499  0.14141014  0.24539451     0.08700
Cu84       Cu  0.03999737  0.05237651  0.36988170     0.44200
Cu85       Cu  0.08076715  0.15726190  0.34494547     0.42000
Cu86       Cu  0.08284965  0.12730274  0.45150386     0.43900
N87         N  0.03906664  0.03912517  0.43044766    -0.34900
N88         N  0.05441431  0.06602895  0.46053834    -0.29200
C89         C  0.04734199  0.04752040  0.49573796    -0.05300
C90         C  0.02662287  0.00719886  0.48715952     0.06900
C91         C  0.02198712  0.00302849  0.44550861     0.00700
H92         H  0.05610473  0.06256271  0.52530321     0.08400
H93         H  0.50679319  0.97605076  0.42732149     0.07400
N94         N  0.10591186  0.18726530  0.43180950    -0.36400
N95         N  0.10363472  0.19802292  0.39309123    -0.28600
C96         C  0.11878244  0.23920102  0.39023405    -0.03800
C97         C  0.13188524  0.25533953  0.42894604     0.04800
C98         C  0.12329459  0.22147500  0.45462511     0.02900
H99         H  0.11970413  0.25630876  0.36190749     0.08000
H100        H  0.12878078  0.22190268  0.48744502     0.06800
N101        N  0.44371667  0.88986267  0.69576324    -0.27600
N102        N  0.47092470  0.92175746  0.68834471    -0.35400
C103        C  0.48471161  0.94394831  0.72281925     0.00800
C104        C  0.46497629  0.92544447  0.75351591     0.06800
C105        C  0.43913817  0.89119053  0.73525833    -0.06300
H106        H  0.50765714  0.97142549  0.72537979     0.07500
H107        H  0.41882612  0.86866304  0.74970208     0.08700
Cu108      Cu  0.48718804  0.93449318  0.63156471     0.44200
Cu109      Cu  0.41648311  0.84515870  0.65165314     0.42000
Cu110      Cu  0.44431934  0.86136024  0.54944413     0.43900
N111        N  0.49510927  0.94540800  0.57194181    -0.34900
N112        N  0.47932900  0.91903639  0.54158888    -0.29200
C113        C  0.48863623  0.93661662  0.50676916    -0.05300
C114        C  0.51123102  0.97589192  0.51580098     0.06900
C115        C  0.51474949  0.98034323  0.55738788     0.00700
H116        H  0.47900324  0.92221849  0.47702969     0.08400
H117        H  0.02974006  0.00731379  0.57570929     0.07400
N118        N  0.40937116  0.80721891  0.56678884    -0.36400
N119        N  0.39874589  0.80201212  0.60353281    -0.28600
C120        C  0.37645105  0.76394223  0.60477100    -0.03800
C121        C  0.37296359  0.74398218  0.56716044     0.04800
C122        C  0.39421344  0.77234900  0.54380728     0.02900
H123        H  0.36398656  0.75148806  0.63126937     0.08000
H124        H  0.39866897  0.76778808  0.51251807     0.06800
C125        C  0.36595705  0.66268275  0.57717964    -0.02100
C126        C  0.35153420  0.70111116  0.55515452     0.07600
C127        C  0.31559133  0.69863020  0.52268657    -0.02200
C128        C  0.29394559  0.65818210  0.51267920    -0.02200
C129        C  0.30805640  0.61986688  0.53508713     0.07700
C130        C  0.34396940  0.62242396  0.56749508    -0.02400
Br131      Br  0.36152955  0.57140087  0.60048393    -0.01000
Br132      Br  0.41736140  0.66440273  0.61953747    -0.01000
Br133      Br  0.24555857  0.65538696  0.46749127    -0.01000
Br134      Br  0.29462457  0.75088767  0.49265718    -0.01000
C135        C  0.20234276  0.35934107  0.43347190    -0.02100
C136        C  0.18452764  0.38438611  0.46297145     0.07600
C137        C  0.14698061  0.36796538  0.47880531    -0.02200
C138        C  0.12886940  0.32656938  0.46642928    -0.02200
C139        C  0.14953423  0.29996354  0.44008231     0.07700
C140        C  0.18621921  0.31672001  0.42342825    -0.02400
Br141      Br  0.21648786  0.28079264  0.38836180    -0.01000
Br142      Br  0.24657595  0.38424050  0.40393229    -0.01000
Br143      Br  0.07382870  0.30768953  0.48370079    -0.01000
Br144      Br  0.12031294  0.40065905  0.51845661    -0.01000
C145        C  0.26550623  0.56991641  0.37039845    -0.02100
C146        C  0.23302330  0.54202960  0.38294958     0.07600
C147        C  0.19613109  0.52804471  0.35471195    -0.02200
C148        C  0.19174287  0.54194115  0.31405621    -0.02200
C149        C  0.22394981  0.57016308  0.30166324     0.07700
C150        C  0.26055246  0.58451136  0.32991957    -0.02400
Br151      Br  0.30448432  0.62337457  0.31289605    -0.01000
Br152      Br  0.31671484  0.58853066  0.40856811    -0.01000
Br153      Br  0.14116912  0.52290317  0.27541421    -0.01000
Br154      Br  0.15297103  0.48774423  0.37109156    -0.01000
C155        C  0.30823935  0.43810959  0.68489776    -0.02100
C156        C  0.27036942  0.43420931  0.70413808     0.07600
C157        C  0.22757788  0.44240627  0.68241777    -0.02200
C158        C  0.22235838  0.45462967  0.64122419    -0.02200
C159        C  0.26047070  0.46004404  0.62150013     0.07700
C160        C  0.30363621  0.45083266  0.64384178    -0.02400
Br161      Br  0.35791066  0.45545155  0.62015828    -0.01000
Br162      Br  0.36695271  0.42754907  0.71574293    -0.01000
Br163      Br  0.16198493  0.46045833  0.61251596    -0.01000
Br164      Br  0.17571217  0.43527304  0.70916415    -0.01000
C165        C  0.04515034  0.01268004  0.14712738    -0.02100
C166        C  0.01620393  0.03768083  0.11877245     0.07600
C167        C  0.49363797  0.07426240  0.13167169    -0.02200
C168        C  0.50120901  0.08672709  0.17280194    -0.02200
C169        C  0.03091575  0.06213254  0.20114941     0.07700
C170        C  0.05283214  0.02501520  0.18819774    -0.02400
Br171      Br  0.09503772  0.99198818  0.22614122    -0.01000
Br172      Br  0.07282520  0.96035968  0.12986672    -0.01000
Br173      Br  0.46950377  0.13646938  0.19036617    -0.01000
Br174      Br  0.45181604  0.10672123  0.09305342    -0.01000
C175        C  0.46366692  0.98287830  0.80737674    -0.02100
C176        C  0.47149112  0.93886349  0.79675987     0.07600
C177        C  0.98711470  0.90814821  0.82758152    -0.02200
C178        C  0.99391920  0.92116322  0.86856602    -0.02200
C179        C  0.48495505  0.96467482  0.87902720     0.07700
C180        C  0.47092491  0.99578456  0.84840431    -0.02400
Br181      Br  0.46204814  0.05625216  0.86278771    -0.01000
Br182      Br  0.44093773  0.02541044  0.76621467    -0.01000
Br183      Br  0.01852338  0.88027023  0.91041183    -0.01000
Br184      Br  0.00192255  0.84880855  0.81400172    -0.01000
C185        C  0.11438003  0.88463946  0.04916538    -0.02100
C186        C  0.06805610  0.88487488  0.03247825     0.07600
C187        C  0.04480467  0.84398225  0.02820303    -0.02200
C188        C  0.06720363  0.80446738  0.04071739    -0.02200
C189        C  0.11282604  0.80480382  0.05723105     0.07700
C190        C  0.13626109  0.84479064  0.06160992    -0.02400
Br191      Br  0.19902601  0.84456865  0.08452248    -0.01000
Br192      Br  0.14931458  0.93808986  0.05679871    -0.01000
Br193      Br  0.03486112  0.74943832  0.03681901    -0.01000
Br194      Br  0.48246478  0.83979149  0.00398796    -0.01000
C195        C  0.38864192  0.11412272  0.93949136    -0.02100
C196        C  0.43087186  0.11614906  0.96477062     0.07600
C197        C  0.44845007  0.15769208  0.97819203    -0.02200
C198        C  0.42387220  0.19634180  0.96699935    -0.02200
C199        C  0.38152288  0.19400483  0.94255157     0.07700
C200        C  0.36415293  0.15287534  0.92861736    -0.02400
Br201      Br  0.30591955  0.14937060  0.89536621    -0.01000
Br202      Br  0.36437299  0.05880160  0.91751867    -0.01000
Br203      Br  0.44946684  0.25286493  0.98368124    -0.01000
Br204      Br  0.00558407  0.16269207  0.01309776    -0.01000
O205        O  0.97485564  0.00408880  0.06054462    -0.73200
O206        O  0.96153860  0.96624674  0.94392956    -0.74200
O207        O  0.00172738  0.92977427  0.01981734    -0.62800
O208        O  0.93496534  0.04085783  0.98591030    -0.71200
O209        O  0.49859462  0.07378961  0.97935664    -0.70800
O210        O  0.56503374  0.96087879  0.01052806    -0.62000
O211        O  0.52468158  0.00044719  0.93684513    -0.74500
O212        O  0.53976599  0.03522130  0.05413442    -0.73300
Cu213      Cu  0.96606407  0.98408822  0.00269308     1.04600
Cu214      Cu  0.53428575  0.01878310  0.99510350     1.04300
C215        C  0.50979681  0.02533256  0.07567327     0.91000
C216        C  0.99066553  0.97773331  0.92200805     0.92100
C217        C  0.54389996  0.92716283  0.02032888     0.84300
C218        C  0.95607087  0.07504076  0.97728997     0.90500
N219        N  0.78752468  0.38160590  0.80333372    -0.27600
N220        N  0.77534066  0.42140769  0.81311981    -0.35400
C221        C  0.76766698  0.44635920  0.77947455     0.00800
C222        C  0.77544119  0.42088227  0.74705832     0.06800
C223        C  0.78796832  0.38004222  0.76312540    -0.06300
H224        H  0.75703948  0.48029732  0.77865325     0.07500
H225        H  0.79662864  0.35137345  0.74683915     0.08700
Cu226      Cu  0.76902820  0.43962306  0.87149442     0.44200
Cu227      Cu  0.80387843  0.33196955  0.84537588     0.42000
Cu228      Cu  0.79873641  0.35882890  0.95100238     0.43900
N229        N  0.76284203  0.45022550  0.93143499    -0.34900
N230        N  0.77365062  0.42104503  0.96075840    -0.29200
C231        C  0.76546253  0.43854674  0.99593599    -0.05300
C232        C  0.74863439  0.48060111  0.98814219     0.06900
C233        C  0.74742436  0.48685896  0.94698157     0.00700
H234        H  0.77132894  0.42186374  0.02498712     0.08400
H235        H  0.73631925  0.51589549  0.92953617     0.07400
N236        N  0.82321197  0.29966549  0.93192465    -0.36400
N237        N  0.82479112  0.29014447  0.89347873    -0.28600
C238        C  0.84462110  0.25084644  0.89141264    -0.03800
C239        C  0.85604766  0.23469649  0.93038320     0.04800
C240        C  0.84190550  0.26640764  0.95534288     0.02900
H241        H  0.85156987  0.23582767  0.86368450     0.08000
H242        H  0.84604877  0.26589082  0.98816184     0.06800
N243        N  0.70841726  0.62064020  0.20141421    -0.27600
N244        N  0.71938943  0.58011151  0.19255650    -0.35400
C245        C  0.72694514  0.55619236  0.22683732     0.00800
C246        C  0.72041963  0.58302664  0.25872739     0.06800
C247        C  0.70877978  0.62367663  0.24171727    -0.06300
H248        H  0.73603115  0.52184121  0.22836443     0.07500
H249        H  0.70039998  0.65292537  0.25729086     0.08700
Cu250      Cu  0.72256665  0.55845948  0.13444558     0.44200
Cu251      Cu  0.69062682  0.66885432  0.15791056     0.42000
Cu252      Cu  0.68751961  0.63563605  0.05299460     0.43900
N253        N  0.72419540  0.54467154  0.07411170    -0.34900
N254        N  0.71166710  0.57281254  0.04423446    -0.29200
C255        C  0.71802869  0.55417680  0.00902016    -0.05300
C256        C  0.73534951  0.51240137  0.01725413     0.06900
C257        C  0.73875029  0.50743979  0.05879825     0.00700
H258        H  0.71096000  0.57009289  0.97964624     0.08400
H259        H  0.75142784  0.47919638  0.07669903     0.07400
N260        N  0.66540100  0.69653061  0.07039640    -0.36400
N261        N  0.66730419  0.70874569  0.10869393    -0.28600
C262        C  0.64967661  0.74925557  0.10983909    -0.03800
C263        C  0.63598145  0.76318560  0.07040840     0.04800
C264        C  0.64635645  0.72900437  0.04614357     0.02900
H265        H  0.64613314  0.76683657  0.13733142     0.08000
H266        H  0.63994862  0.72761218  0.01332574     0.06800
O267        O  0.77268621  0.50660674  0.44126779    -0.73200
O268        O  0.78522817  0.46626703  0.55659809    -0.74200
O269        O  0.74874775  0.43003182  0.48128591    -0.62800
O270        O  0.80933767  0.54392727  0.51687476    -0.71200
O271        O  0.74345811  0.57389069  0.52143224    -0.70800
O272        O  0.68292307  0.45934886  0.48620286    -0.62000
O273        O  0.72082979  0.49728847  0.56265901    -0.74500
O274        O  0.70651277  0.53592739  0.44619332    -0.73300
Cu275      Cu  0.78126095  0.48572507  0.49889824     1.04600
Cu276      Cu  0.71110163  0.51759412  0.50442069     1.04300
C277        C  0.73762044  0.52747965  0.42550513     0.93000
C278        C  0.75521428  0.47519244  0.57823734     0.92100
C279        C  0.70624895  0.42663011  0.47758258     0.84300
C280        C  0.78589996  0.57714399  0.52411959     0.90500
N281        N  0.55790794  0.11073821  0.30174617    -0.27600
N282        N  0.54254489  0.07204610  0.31105034    -0.35400
C283        C  0.53014823  0.04904159  0.27679993     0.00800
C284        C  0.53837201  0.07452464  0.24442260     0.06800
C285        C  0.55599903  0.11344624  0.26127038    -0.06300
H286        H  0.51646992  0.01622383  0.27558369     0.07500
H287        H  0.56692450  0.14141020  0.24539445     0.08700
Cu288      Cu  0.53999759  0.05237638  0.36988171     0.44200
Cu289      Cu  0.58076677  0.15726198  0.34494540     0.42000
Cu290      Cu  0.58284940  0.12730277  0.45150383     0.43900
N291        N  0.53906665  0.03912499  0.43044759    -0.34900
N292        N  0.55441423  0.06602896  0.46053842    -0.29200
C293        C  0.54734168  0.04752022  0.49573752    -0.05300
C294        C  0.52662277  0.00719879  0.48715948     0.06900
C295        C  0.52198739  0.00302873  0.44550878     0.00700
H296        H  0.55610482  0.06256351  0.52530466     0.08400
H297        H  0.00679376  0.97605223  0.42732240     0.07400
N298        N  0.60591153  0.18726533  0.43180932    -0.36400
N299        N  0.60363436  0.19802291  0.39309125    -0.28600
C300        C  0.61878217  0.23920128  0.39023365    -0.03800
C301        C  0.63188503  0.25533952  0.42894593     0.04800
C302        C  0.62329447  0.22147505  0.45462557     0.02900
H303        H  0.61970378  0.25630800  0.36190868     0.08000
H304        H  0.62878028  0.22190264  0.48744288     0.06800
N305        N  0.94371697  0.88986258  0.69576332    -0.27600
N306        N  0.97092506  0.92175739  0.68834486    -0.35400
C307        C  0.98471165  0.94394777  0.72281936     0.00800
C308        C  0.96497664  0.92544437  0.75351603     0.06800
C309        C  0.93913825  0.89119020  0.73525855    -0.06300
H310        H  0.00765872  0.97142678  0.72538011     0.07500
H311        H  0.91882708  0.86866378  0.74970161     0.08700
Cu312      Cu  0.98718837  0.93449316  0.63156485     0.44200
Cu313      Cu  0.91648336  0.84515862  0.65165323     0.42000
Cu314      Cu  0.94431963  0.86136021  0.54944430     0.43900
N315        N  0.99510954  0.94540801  0.57194194    -0.34900
N316        N  0.97932925  0.91903639  0.54158901    -0.29200
C317        C  0.98863643  0.93661665  0.50676930    -0.05300
C318        C  0.01123118  0.97589196  0.51580107     0.06900
C319        C  0.01474970  0.98034324  0.55738796     0.00700
H320        H  0.97900337  0.92221845  0.47702974     0.08400
H321        H  0.52973980  0.00731367  0.57570916     0.07400
N322        N  0.90937132  0.80721891  0.56678892    -0.36400
N323        N  0.89874604  0.80201210  0.60353288    -0.28600
C324        C  0.87645113  0.76394225  0.60477102    -0.03800
C325        C  0.87296362  0.74398224  0.56716044     0.04800
C326        C  0.89421352  0.77234905  0.54380730     0.02900
H327        H  0.86398662  0.75148805  0.63126943     0.08000
H328        H  0.89866903  0.76778816  0.51251817     0.06800
C329        C  0.86595712  0.66268278  0.57717956    -0.02100
C330        C  0.85153422  0.70111122  0.55515451     0.07600
C331        C  0.81559127  0.69863029  0.52268662    -0.02200
C332        C  0.79394551  0.65818219  0.51267925    -0.02200
C333        C  0.80805640  0.61986693  0.53508709     0.07700
C334        C  0.84396947  0.62242399  0.56749499    -0.02400
Br335      Br  0.86152968  0.57140085  0.60048377    -0.01000
Br336      Br  0.91736153  0.66440273  0.61953731    -0.01000
Br337      Br  0.74555831  0.65538713  0.46749147    -0.01000
Br338      Br  0.79462446  0.75088780  0.49265731    -0.01000
C339        C  0.70234277  0.35934096  0.43347177    -0.02100
C340        C  0.68452777  0.38438602  0.46297138     0.07600
C341        C  0.64698078  0.36796532  0.47880533    -0.02200
C342        C  0.62886945  0.32656936  0.46642928    -0.02200
C343        C  0.64953414  0.29996352  0.44008223     0.07700
C344        C  0.68621911  0.31671993  0.42342810    -0.02400
Br345      Br  0.71648754  0.28079256  0.38836149    -0.01000
Br346      Br  0.74657594  0.38424032  0.40393211    -0.01000
Br347      Br  0.57382875  0.30768964  0.48370086    -0.01000
Br348      Br  0.62031335  0.40065895  0.51845680    -0.01000
C349        C  0.76550619  0.56991647  0.37039828    -0.02100
C350        C  0.73302332  0.54202961  0.38294945     0.07600
C351        C  0.69613110  0.52804468  0.35471186    -0.02200
C352        C  0.69174282  0.54194110  0.31405611    -0.02200
C353        C  0.72394972  0.57016305  0.30166309     0.07700
C354        C  0.76055236  0.58451138  0.32991939    -0.02400
Br355      Br  0.80448415  0.62337465  0.31289581    -0.01000
Br356      Br  0.81671474  0.58853089  0.40856793    -0.01000
Br357      Br  0.64116903  0.52290309  0.27541417    -0.01000
Br358      Br  0.65297107  0.48774422  0.37109155    -0.01000
C359        C  0.80823928  0.43810940  0.68489766    -0.02100
C360        C  0.77036932  0.43420921  0.70413796     0.07600
C361        C  0.72757782  0.44240628  0.68241764    -0.02200
C362        C  0.72235837  0.45462973  0.64122407    -0.02200
C363        C  0.76047072  0.46004399  0.62150002     0.07700
C364        C  0.80363619  0.45083249  0.64384168    -0.02400
Br365      Br  0.85791067  0.45545128  0.62015822    -0.01000
Br366      Br  0.86695259  0.42754873  0.71574285    -0.01000
Br367      Br  0.66198493  0.46045863  0.61251587    -0.01000
Br368      Br  0.67571206  0.43527312  0.70916399    -0.01000
C369        C  0.54515065  0.01268012  0.14712734    -0.02100
C370        C  0.51620383  0.03768061  0.11877248     0.07600
C371        C  0.99363845  0.07426291  0.13167158    -0.02200
C372        C  0.00120944  0.08672756  0.17280184    -0.02200
C373        C  0.53091576  0.06213240  0.20114941     0.07700
C374        C  0.55283253  0.02501535  0.18819767    -0.02400
Br375      Br  0.59503869  0.99198882  0.22614105    -0.01000
Br376      Br  0.57282590  0.96036001  0.12986663    -0.01000
Br377      Br  0.96950473  0.13647029  0.19036594    -0.01000
Br378      Br  0.95181708  0.10672218  0.09305318    -0.01000
C379        C  0.96366720  0.98287817  0.80737682    -0.02100
C380        C  0.97149136  0.93886332  0.79675999     0.07600
C381        C  0.48711455  0.90814836  0.82758137    -0.02200
C382        C  0.49391903  0.92116332  0.86856588    -0.02200
C383        C  0.98495532  0.96467477  0.87902728     0.07700
C384        C  0.97092523  0.99578448  0.84840436    -0.02400
Br385      Br  0.96204853  0.05625212  0.86278769    -0.01000
Br386      Br  0.94093803  0.02541026  0.76621470    -0.01000
Br387      Br  0.51852333  0.88027031  0.91041164    -0.01000
Br388      Br  0.50192256  0.84880877  0.81400149    -0.01000
C389        C  0.61437999  0.88463938  0.04916504    -0.02100
C390        C  0.56805604  0.88487481  0.03247797     0.07600
C391        C  0.54480460  0.84398217  0.02820272    -0.02200
C392        C  0.56720357  0.80446730  0.04071703    -0.02200
C393        C  0.61282597  0.80480374  0.05723075     0.07700
C394        C  0.63626102  0.84479055  0.06160961    -0.02400
Br395      Br  0.69902594  0.84456854  0.08452217    -0.01000
Br396      Br  0.64931460  0.93808975  0.05679820    -0.01000
Br397      Br  0.53486108  0.74943823  0.03681848    -0.01000
Br398      Br  0.98246484  0.83979155  0.00398827    -0.01000
C399        C  0.88864221  0.11412278  0.93949120    -0.02100
C400        C  0.93087224  0.11614918  0.96477033     0.07600
C401        C  0.94845053  0.15769225  0.97819151    -0.02200
C402        C  0.92387262  0.19634194  0.96699881    -0.02200
C403        C  0.88152315  0.19400490  0.94255129     0.07700
C404        C  0.86415315  0.15287538  0.92861726    -0.02400
Br405      Br  0.80591957  0.14937055  0.89536645    -0.01000
Br406      Br  0.86437331  0.05880166  0.91751851    -0.01000
Br407      Br  0.94946735  0.25286514  0.98368034    -0.01000
Br408      Br  0.50558338  0.16269175  0.01309866    -0.01000
loop_ 
_geom_bond_atom_site_label_1 
_geom_bond_atom_site_label_2 
_geom_bond_distance 
_geom_bond_site_symmetry_2 
_ccdc_geom_bond_type 
O1           Cu9   2.001   1_545  S
O1          C215   1.275       .  A
O2           Cu9   2.018   1_556  S
O2           C12   1.279       .  A
O3           Cu9   2.005       .  S
O3          C217   1.276       .  A
O4           Cu9   2.003   1_546  S
O4           C14   1.277       .  A
O5          Cu10   2.015   1_655  S
O5          C218   1.279       .  A
O6          Cu10   2.019   1_564  S
O6           C13   1.278       .  A
O7          Cu10   1.999       .  S
O7          C216   1.275   1_445  A
O8          Cu10   2.013   1_554  S
O8           C11   1.278       .  A
Cu9        Cu214   2.368   1_564  S
Cu10       Cu213   2.368   1_446  S
C11         O205   1.275   1_455  A
C11         C166   1.469       .  S
C12         O211   1.275   1_565  A
C12         C179   1.472       .  S
C13         O207   1.276       .  A
C13         C186   1.502       .  S
C14         O209   1.279       .  A
C14         C196   1.489       .  S
N15          N16   1.321       .  A
N15          C19   1.344       .  A
N15         Cu23   2.066       .  S
N16          C17   1.343       .  A
N16         Cu22   2.062       .  S
C17          C18   1.380       .  A
C17          H20   1.080       .  S
C18         C156   1.472       .  S
C18          C19   1.381       .  A
C19          H21   1.081       .  S
Cu22         N25   2.062       .  S
Cu23         N33   2.066       .  S
Cu24         N26   2.083       .  S
Cu24         N32   2.083       .  S
N25          N26   1.322       .  A
N25          C29   1.343       .  A
N26          C27   1.346       .  A
C27          C28   1.386       .  A
C27          H30   1.083   1_556  S
C28          C52   1.471   1_556  S
C28          C29   1.380       .  A
C29          H31   1.081       .  S
N32          N33   1.323       .  A
N32          C36   1.346       .  A
N33          C34   1.344       .  A
C34          C35   1.381       .  A
C34          H37   1.081       .  S
C35         C199   1.480       .  S
C35          C36   1.385       .  A
C36          H38   1.082       .  S
N39          N40   1.322       .  A
N39          C43   1.346       .  A
N39         Cu47   2.072       .  S
N40          C41   1.343       .  A
N40         Cu46   2.064       .  S
C41          C42   1.380       .  A
C41          H44   1.079       .  S
C42         C149   1.471       .  S
C42          C43   1.382       .  A
C43          H45   1.080       .  S
Cu46         N49   2.064       .  S
Cu47         N57   2.073       .  S
Cu48         N50   2.082       .  S
Cu48         N56   2.083       .  S
N49          N50   1.322       .  A
N49          C53   1.345       .  A
N50          C51   1.345       .  A
C51          C52   1.385       .  A
C51          H54   1.083   1_554  S
C52          C53   1.381       .  A
C53          H55   1.081       .  S
N56          N57   1.323       .  A
N56          C60   1.347       .  A
N57          C58   1.345       .  A
C58          C59   1.381       .  A
C58          H61   1.082       .  S
C59         C189   1.479       .  S
C59          C60   1.384       .  A
C60          H62   1.082       .  S
O63         Cu71   2.001       .  S
O63          C73   1.276       .  A
O64         Cu71   1.998       .  S
O64          C74   1.274       .  A
O65         Cu71   2.002       .  S
O65          C75   1.277       .  A
O66         Cu71   2.016       .  S
O66          C76   1.279       .  A
O67         Cu72   2.012       .  S
O67          C76   1.278       .  A
O68         Cu72   2.020       .  S
O68          C75   1.278       .  A
O69         Cu72   2.014       .  S
O69          C74   1.278       .  A
O70         Cu72   2.003       .  S
O70          C73   1.277       .  A
Cu71        Cu72   2.367       .  S
C73         C146   1.472       .  S
C74         C159   1.498       .  S
C75         C136   1.491       .  S
C76         C129   1.483       .  S
N77          N78   1.320       .  A
N77          C81   1.344       .  A
N77         Cu85   2.062       .  S
N78          C79   1.343       .  A
N78         Cu84   2.063       .  S
C79          C80   1.382       .  A
C79          H82   1.080       .  S
C80         C169   1.475       .  S
C80          C81   1.383       .  A
C81          H83   1.080       .  S
Cu84         N87   2.064       .  S
Cu85         N95   2.063       .  S
Cu86         N88   2.095       .  S
Cu86         N94   2.095       .  S
N87          N88   1.323       .  A
N87          C91   1.344       .  A
N88          C89   1.348       .  A
C89          C90   1.388       .  A
C89          H92   1.082       .  S
C90         C318   1.474   1_545  S
C90          C91   1.380       .  A
C91         H297   1.081   1_545  S
H93         C295   1.081   1_565  S
N94          N95   1.323       .  A
N94          C98   1.348       .  A
N95          C96   1.343       .  A
C96          C97   1.381       .  A
C96          H99   1.082       .  S
C97         C139   1.486       .  S
C97          C98   1.389       .  A
C98         H100   1.081       .  S
N101        N102   1.321       .  A
N101        C105   1.346       .  A
N101       Cu109   2.079       .  S
N102        C103   1.343       .  A
N102       Cu108   2.066       .  S
C103        C104   1.383       .  A
C103        H106   1.082       .  S
C104        C176   1.483       .  S
C104        C105   1.387       .  A
C105        H107   1.083       .  S
Cu108       N111   2.066       .  S
Cu109       N119   2.079       .  S
Cu110       N112   2.088       .  S
Cu110       N118   2.088       .  S
N111        N112   1.322       .  A
N111        C115   1.345       .  A
N112        C113   1.347       .  A
C113        C114   1.387       .  A
C113        H116   1.082       .  S
C114        C294   1.474   1_565  S
C114        C115   1.381       .  A
C115        H321   1.081   1_565  S
H117        C319   1.081   1_545  S
N118        N119   1.324       .  A
N118        C122   1.348       .  A
N119        C120   1.345       .  A
C120        C121   1.383       .  A
C120        H123   1.082       .  S
C121        C126   1.485       .  S
C121        C122   1.386       .  A
C122        H124   1.082       .  S
C125        C126   1.412       .  A
C125        C130   1.408       .  A
C125       Br132   1.932       .  S
C126        C127   1.412       .  A
C127        C128   1.410       .  A
C127       Br134   1.931       .  S
C128        C129   1.413       .  A
C128       Br133   1.932       .  S
C129        C130   1.410       .  A
C130       Br131   1.927       .  S
C135        C136   1.416       .  A
C135        C140   1.408       .  A
C135       Br142   1.936       .  S
C136        C137   1.417       .  A
C137        C138   1.410       .  A
C137       Br144   1.930       .  S
C138        C139   1.411       .  A
C138       Br143   1.933       .  S
C139        C140   1.412       .  A
C140       Br141   1.933       .  S
C145        C146   1.411       .  A
C145        C150   1.406       .  A
C145       Br152   1.932       .  S
C146        C147   1.410       .  A
C147        C148   1.406       .  A
C147       Br154   1.932       .  S
C148        C149   1.409       .  A
C148       Br153   1.931       .  S
C149        C150   1.408       .  A
C150       Br151   1.930       .  S
C155        C156   1.403       .  A
C155        C160   1.408       .  A
C155       Br162   1.935       .  S
C156        C157   1.404       .  A
C157        C158   1.407       .  A
C157       Br164   1.935       .  S
C158        C159   1.424       .  A
C158       Br163   1.934       .  S
C159        C160   1.427       .  A
C160       Br161   1.936       .  S
C165        C166   1.406       .  A
C165        C170   1.405       .  A
C165       Br172   1.928   1_545  S
C166        C371   1.407   1_455  A
C167        C168   1.407       .  A
C167        C370   1.407       .  A
C167       Br174   1.929       .  S
C168        C373   1.412       .  A
C168       Br173   1.931       .  S
C169        C170   1.411       .  A
C169        C372   1.412       .  A
C170       Br171   1.932   1_545  S
C175        C176   1.414       .  A
C175        C180   1.408       .  A
C175       Br182   1.931   1_565  S
C176        C381   1.413       .  A
C177        C178   1.407       .  A
C177        C380   1.413       .  A
C177       Br184   1.931   1_655  S
C178        C383   1.406       .  A
C178       Br183   1.928   1_655  S
C179        C180   1.407       .  A
C179        C382   1.406       .  A
C180       Br181   1.931   1_565  S
C185        C186   1.425       .  A
C185        C190   1.411       .  A
C185       Br192   1.936       .  S
C186        C187   1.426       .  A
C187        C188   1.410       .  A
C187       Br398   1.937   1_455  S
C188        C189   1.404       .  A
C188       Br193   1.934       .  S
C189        C190   1.405       .  A
C190       Br191   1.934       .  S
Br194       C391   1.937       .  S
C195        C196   1.418       .  A
C195        C200   1.408       .  A
C195       Br202   1.936       .  S
C196        C197   1.417       .  A
C197        C198   1.409       .  A
C197       Br408   1.934   1_556  S
C198        C199   1.409       .  A
C198       Br203   1.933       .  S
C199        C200   1.409       .  A
C200       Br201   1.933       .  S
Br204       C401   1.934   1_454  S
O205       Cu213   2.001   1_545  S
O206       Cu213   2.018   1_556  S
O206        C216   1.279       .  A
O207       Cu213   2.005   1_455  S
O208       Cu213   2.003   1_546  S
O208        C218   1.277       .  A
O209       Cu214   2.015       .  S
O210       Cu214   2.019   1_564  S
O210        C217   1.278       .  A
O211       Cu214   1.999       .  S
O212       Cu214   2.013   1_554  S
O212        C215   1.278       .  A
C215        C370   1.469       .  S
C216        C383   1.472       .  S
C217        C390   1.502       .  S
C218        C400   1.489       .  S
N219        N220   1.321       .  A
N219        C223   1.344       .  A
N219       Cu227   2.066       .  S
N220        C221   1.343       .  A
N220       Cu226   2.062       .  S
C221        C222   1.380       .  A
C221        H224   1.080       .  S
C222        C360   1.472       .  S
C222        C223   1.381       .  A
C223        H225   1.081       .  S
Cu226       N229   2.062       .  S
Cu227       N237   2.066       .  S
Cu228       N230   2.083       .  S
Cu228       N236   2.083       .  S
N229        N230   1.322       .  A
N229        C233   1.343       .  A
N230        C231   1.347       .  A
C231        C232   1.386       .  A
C231        H234   1.083   1_556  S
C232        C256   1.471   1_556  S
C232        C233   1.380       .  A
C233        H235   1.081       .  S
N236        N237   1.323       .  A
N236        C240   1.346       .  A
N237        C238   1.344       .  A
C238        C239   1.381       .  A
C238        H241   1.081       .  S
C239        C403   1.480       .  S
C239        C240   1.385       .  A
C240        H242   1.082       .  S
N243        N244   1.322       .  A
N243        C247   1.346       .  A
N243       Cu251   2.072       .  S
N244        C245   1.343       .  A
N244       Cu250   2.064       .  S
C245        C246   1.380       .  A
C245        H248   1.079       .  S
C246        C353   1.471       .  S
C246        C247   1.382       .  A
C247        H249   1.080       .  S
Cu250       N253   2.064       .  S
Cu251       N261   2.073       .  S
Cu252       N254   2.082       .  S
Cu252       N260   2.083       .  S
N253        N254   1.322       .  A
N253        C257   1.345       .  A
N254        C255   1.345       .  A
C255        C256   1.385       .  A
C255        H258   1.083   1_554  S
C256        C257   1.381       .  A
C257        H259   1.081       .  S
N260        N261   1.323       .  A
N260        C264   1.347       .  A
N261        C262   1.345       .  A
C262        C263   1.381       .  A
C262        H265   1.082       .  S
C263        C393   1.479       .  S
C263        C264   1.384       .  A
C264        H266   1.082       .  S
O267       Cu275   2.001       .  S
O267        C277   1.276       .  A
O268       Cu275   1.998       .  S
O268        C278   1.274       .  A
O269       Cu275   2.002       .  S
O269        C279   1.277       .  A
O270       Cu275   2.016       .  S
O270        C280   1.279       .  A
O271       Cu276   2.012       .  S
O271        C280   1.278       .  A
O272       Cu276   2.020       .  S
O272        C279   1.278       .  A
O273       Cu276   2.014       .  S
O273        C278   1.278       .  A
O274       Cu276   2.003       .  S
O274        C277   1.277       .  A
Cu275      Cu276   2.367       .  S
C277        C350   1.472       .  S
C278        C363   1.498       .  S
C279        C340   1.491       .  S
C280        C333   1.483       .  S
N281        N282   1.320       .  A
N281        C285   1.344       .  A
N281       Cu289   2.062       .  S
N282        C283   1.343       .  A
N282       Cu288   2.063       .  S
C283        C284   1.382       .  A
C283        H286   1.080       .  S
C284        C373   1.475       .  S
C284        C285   1.383       .  A
C285        H287   1.080       .  S
Cu288       N291   2.064       .  S
Cu289       N299   2.063       .  S
Cu290       N292   2.095       .  S
Cu290       N298   2.095       .  S
N291        N292   1.323       .  A
N291        C295   1.344       .  A
N292        C293   1.348       .  A
C293        C294   1.388       .  A
C293        H296   1.082       .  S
C294        C295   1.380       .  A
N298        N299   1.323       .  A
N298        C302   1.348       .  A
N299        C300   1.343       .  A
C300        C301   1.381       .  A
C300        H303   1.082       .  S
C301        C343   1.486       .  S
C301        C302   1.389       .  A
C302        H304   1.081       .  S
N305        N306   1.321       .  A
N305        C309   1.346       .  A
N305       Cu313   2.079       .  S
N306        C307   1.343       .  A
N306       Cu312   2.066       .  S
C307        C308   1.383       .  A
C307        H310   1.082   1_655  S
C308        C380   1.483       .  S
C308        C309   1.387       .  A
C309        H311   1.083       .  S
Cu312       N315   2.066       .  S
Cu313       N323   2.079       .  S
Cu314       N316   2.088       .  S
Cu314       N322   2.088       .  S
N315        N316   1.322       .  A
N315        C319   1.345   1_655  A
N316        C317   1.347       .  A
C317        C318   1.387   1_655  A
C317        H320   1.082       .  S
C318        C319   1.381       .  A
N322        N323   1.324       .  A
N322        C326   1.348       .  A
N323        C324   1.345       .  A
C324        C325   1.383       .  A
C324        H327   1.082       .  S
C325        C330   1.485       .  S
C325        C326   1.386       .  A
C326        H328   1.082       .  S
C329        C330   1.412       .  A
C329        C334   1.408       .  A
C329       Br336   1.932       .  S
C330        C331   1.412       .  A
C331        C332   1.410       .  A
C331       Br338   1.931       .  S
C332        C333   1.413       .  A
C332       Br337   1.932       .  S
C333        C334   1.410       .  A
C334       Br335   1.927       .  S
C339        C340   1.416       .  A
C339        C344   1.408       .  A
C339       Br346   1.936       .  S
C340        C341   1.417       .  A
C341        C342   1.410       .  A
C341       Br348   1.930       .  S
C342        C343   1.411       .  A
C342       Br347   1.933       .  S
C343        C344   1.412       .  A
C344       Br345   1.933       .  S
C349        C350   1.411       .  A
C349        C354   1.406       .  A
C349       Br356   1.932       .  S
C350        C351   1.410       .  A
C351        C352   1.406       .  A
C351       Br358   1.932       .  S
C352        C353   1.409       .  A
C352       Br357   1.931       .  S
C353        C354   1.408       .  A
C354       Br355   1.930       .  S
C359        C360   1.403       .  A
C359        C364   1.408       .  A
C359       Br366   1.935       .  S
C360        C361   1.404       .  A
C361        C362   1.407       .  A
C361       Br368   1.935       .  S
C362        C363   1.424       .  A
C362       Br367   1.934       .  S
C363        C364   1.427       .  A
C364       Br365   1.936       .  S
C369        C370   1.406       .  A
C369        C374   1.405       .  A
C369       Br376   1.928   1_545  S
C371        C372   1.407   1_655  A
C371       Br378   1.929       .  S
C372       Br377   1.931   1_455  S
C373        C374   1.411       .  A
C374       Br375   1.932   1_545  S
C379        C380   1.414       .  A
C379        C384   1.408       .  A
C379       Br386   1.931   1_565  S
C381        C382   1.407       .  A
C381       Br388   1.931       .  S
C382       Br387   1.928       .  S
C383        C384   1.407       .  A
C384       Br385   1.931   1_565  S
C389        C390   1.425       .  A
C389        C394   1.411       .  A
C389       Br396   1.936       .  S
C390        C391   1.426       .  A
C391        C392   1.410       .  A
C392        C393   1.404       .  A
C392       Br397   1.934       .  S
C393        C394   1.405       .  A
C394       Br395   1.934       .  S
C399        C400   1.418       .  A
C399        C404   1.408       .  A
C399       Br406   1.936       .  S
C400        C401   1.417       .  A
C401        C402   1.409       .  A
C402        C403   1.409       .  A
C402       Br407   1.933       .  S
C403        C404   1.409       .  A
C404       Br405   1.933       .  S
