geometry optimzed in LAMMPS
_audit_creation_date              2020-11-30 
_audit_creation_method            'lammps2cif' 
_symmetry_space_group_name_H-M    'P1' 
_symmetry_Int_Tables_number       1 
_symmetry_cell_setting            triclinic 
loop_ 
_symmetry_equiv_pos_as_xyz 
  x,y,z 
_cell_length_a                    76.8570562 
_cell_length_b                    76.82274972977085 
_cell_length_c                    76.45875726757596 
_cell_angle_alpha                 90.08526073580114 
_cell_angle_beta                  90.07756025652627 
_cell_angle_gamma                 90.0666643187968 
loop_ 
_atom_site_label 
_atom_site_type_symbol 
_atom_site_fract_x 
_atom_site_fract_y 
_atom_site_fract_z 
_atom_site_charge 
In1        In  0.76509908  0.35806319  0.38445212     1.36900
C2          C  0.79284579  0.37236146  0.39912290     0.77300
O3          O  0.75174095  0.37881456  0.39902278    -0.61100
O4          O  0.74356315  0.35281635  0.40408205    -0.52100
C5          C  0.74669915  0.36195202  0.35542607     0.70000
O6          O  0.75968586  0.37158252  0.35879228    -0.46900
C7          C  0.78192204  0.32921515  0.37646505     0.74700
O8          O  0.78461940  0.38006048  0.38702035    -0.58800
O9          O  0.77184661  0.32995873  0.38958132    -0.48900
O10         O  0.78683045  0.35771505  0.40344476    -0.55200
C11         C  0.74166966  0.36888716  0.40733305     0.84800
O12         O  0.74342885  0.35060042  0.36688814    -0.57100
O13         O  0.78237037  0.34282600  0.36720249    -0.60400
In14       In  0.64471887  0.41633780  0.49310705     1.36900
C15         C  0.66484023  0.40003584  0.46999807     0.77300
O16         O  0.62949601  0.42947926  0.47243522    -0.61100
O17         O  0.64918941  0.44439644  0.48501521    -0.52100
C18         C  0.61332503  0.40941381  0.50598492     0.70000
O19         O  0.62039644  0.40007873  0.49434816    -0.46900
C20         C  0.66354667  0.41036660  0.52168605     0.74700
O21         O  0.65042504  0.39372145  0.47483575    -0.58800
O22         O  0.66083096  0.42570995  0.51630809    -0.48900
O23         O  0.66854189  0.41449661  0.47685625    -0.55200
C24         C  0.63764459  0.44370760  0.47321154     0.84800
O25         O  0.62234396  0.42231880  0.51085790    -0.57100
O26         O  0.65652117  0.39864430  0.51253034    -0.60400
In27       In  0.74904970  0.34923075  0.60993825     1.36900
C28         C  0.72377443  0.36452972  0.59216376     0.77300
O29         O  0.76505623  0.36582795  0.59268754    -0.61100
O30         O  0.77086794  0.33877864  0.59290226    -0.52100
C31         C  0.76686270  0.35587605  0.63897187     0.70000
O32         O  0.75484333  0.36584112  0.63367971    -0.46900
C33         C  0.72846137  0.32312078  0.61906898     0.74700
O34         O  0.73129673  0.37236252  0.60468864    -0.58800
O35         O  0.73955910  0.32160418  0.60693301    -0.48900
O36         O  0.72942943  0.34945133  0.58902412    -0.55200
C37         C  0.77451133  0.35371460  0.58694313     0.84800
O38         O  0.76932465  0.34260609  0.62954363    -0.57100
O39         O  0.72905698  0.33740615  0.62724913    -0.60400
In40       In  0.87194431  0.40616128  0.50318393     1.36900
C41         C  0.84652042  0.39375051  0.52338126     0.77300
O42         O  0.88749596  0.41409207  0.52642217    -0.61100
O43         O  0.87491511  0.43413450  0.51196363    -0.52100
C44         C  0.90211955  0.39549083  0.49012294     0.70000
O45         O  0.89306288  0.38584857  0.50004532    -0.46900
C46         C  0.85471220  0.40626183  0.47305823     0.74700
O47         O  0.85980078  0.38467468  0.51978633    -0.58800
O48         O  0.85725399  0.42009227  0.48171482    -0.48900
O49         O  0.84659794  0.40871295  0.51668485    -0.55200
C50         C  0.88436978  0.43014780  0.52491714     0.84800
O51         O  0.89575181  0.41039954  0.48737745    -0.57100
O52         O  0.86118632  0.39274269  0.47976663    -0.60400
In53       In  0.36103985  0.39082185  0.75627244     1.36900
C54         C  0.37582562  0.41222363  0.77948321     0.77300
O55         O  0.37602124  0.40487533  0.73599265    -0.61100
O56         O  0.34857935  0.40791622  0.73539748    -0.52100
C57         C  0.37016957  0.36127649  0.74050763     0.70000
O58         O  0.38003901  0.36890329  0.75136574    -0.46900
C59         C  0.33602070  0.37840210  0.77660528     0.74700
O60         O  0.38377103  0.39917560  0.77329264    -0.58800
O61         O  0.33287760  0.38928650  0.76458327    -0.48900
O62         O  0.36041680  0.41387885  0.77405802    -0.55200
C63         C  0.36310939  0.41188420  0.72868877     0.84800
O64         O  0.35570293  0.36868431  0.73810207    -0.57100
O65         O  0.35175164  0.37384582  0.77782901    -0.60400
In66       In  0.41322947  0.51759101  0.86244014     1.36900
C67         C  0.40017562  0.54230541  0.84262944     0.77300
O68         O  0.42623356  0.53901294  0.87706665    -0.61100
O69         O  0.44140787  0.52502909  0.85838219    -0.52100
C70         C  0.40983348  0.50233458  0.89324897     0.70000
O71         O  0.39939081  0.51407442  0.88815281    -0.46900
C72         C  0.40223781  0.49108077  0.84287255     0.74700
O73         O  0.39262533  0.53789265  0.85672468    -0.58800
O74         O  0.41834615  0.49417020  0.84497947    -0.48900
O75         O  0.41360603  0.53364393  0.83883692    -0.55200
C76         C  0.44064153  0.53754589  0.86923751     0.84800
O77         O  0.42194971  0.49882885  0.88263661    -0.57100
O78         O  0.39225344  0.50144150  0.85084719    -0.60400
In79       In  0.40942991  0.50742645  0.64033864     1.36900
C80         C  0.39734315  0.48153445  0.65987387     0.77300
O81         O  0.42103728  0.48758383  0.62302740    -0.61100
O82         O  0.43749985  0.49953850  0.64213608    -0.52100
C83         C  0.40339437  0.52372715  0.61018446     0.70000
O84         O  0.39316393  0.51202326  0.61581658    -0.46900
C85         C  0.40469503  0.53424836  0.66159095     0.74700
O86         O  0.38810072  0.48808010  0.64778174    -0.58800
O87         O  0.41975653  0.52895090  0.65757637    -0.48900
O88         O  0.41188153  0.48878792  0.66210231    -0.55200
C89         C  0.43581900  0.48812892  0.63026533     0.84800
O90         O  0.41633761  0.52667285  0.61995178    -0.57100
O91         O  0.39236653  0.52562034  0.65488232    -0.60400
In92       In  0.35440969  0.62967449  0.74738802     1.36900
C93         C  0.36703857  0.60863107  0.72332162     0.77300
O94         O  0.37165804  0.61561789  0.76547590    -0.61100
O95         O  0.34431122  0.61255233  0.76921687    -0.52100
C96         C  0.36004756  0.65868035  0.76496129     0.70000
O97         O  0.37082412  0.65324869  0.75361100    -0.46900
C98         C  0.33010769  0.64122052  0.72597361     0.74700
O99         O  0.37617770  0.62114521  0.72920062    -0.58800
O100        O  0.32690602  0.62958276  0.73729742    -0.48900
O101        O  0.35212956  0.60714347  0.73003774    -0.55200
C102        C  0.35957582  0.60874153  0.77427341     0.84800
O103        O  0.34657367  0.64939072  0.76674584    -0.57100
O104        O  0.34538932  0.64734447  0.72640184    -0.60400
In105      In  0.50563066  0.64372054  0.40437208     1.36900
C106        C  0.48189175  0.66293629  0.38808419     0.77300
O107        O  0.48394157  0.62758230  0.41434002    -0.61100
O108        O  0.49643755  0.64479750  0.43234706    -0.52100
C109        C  0.52265862  0.61408772  0.40002824     0.70000
O110        O  0.51188981  0.61962019  0.38876041    -0.46900
C111        C  0.53264911  0.66445326  0.39865399     0.74700
O112        O  0.48768065  0.64892528  0.38152259    -0.58800
O113        O  0.52662586  0.66228305  0.41394017    -0.48900
O114        O  0.48837470  0.66690013  0.40274780    -0.55200
C115        C  0.48443589  0.63374788  0.42965578     0.84800
O116        O  0.52425581  0.62359778  0.41342974    -0.57100
O117        O  0.52484064  0.65599679  0.38685818    -0.60400
In118      In  0.62218133  0.75339551  0.34348600     1.36900
C119        C  0.60213240  0.72835188  0.35574039     0.77300
O120        O  0.60674452  0.76932114  0.36179442    -0.61100
O121        O  0.60407229  0.77508136  0.33465842    -0.52100
C122        C  0.65030941  0.77176968  0.35112872     0.70000
O123        O  0.64547760  0.75916828  0.36069426    -0.46900
C124        C  0.63469692  0.73388067  0.31775547     0.74700
O125        O  0.61476361  0.73428640  0.36467311    -0.58800
O126        O  0.62257744  0.74480339  0.31520161    -0.48900
O127        O  0.60015488  0.73522768  0.34088440    -0.55200
C128        C  0.59952616  0.77856141  0.35024345     0.84800
O129        O  0.64095324  0.77436324  0.33776628    -0.57100
O130        O  0.64073568  0.73370540  0.33314302    -0.60400
In131      In  0.51170798  0.86755275  0.40888948     1.36900
C132        C  0.53407641  0.84517487  0.39586968     0.77300
O133        O  0.53430382  0.88138198  0.41990369    -0.61100
O134        O  0.51955753  0.86547538  0.43740600    -0.52100
C135        C  0.49762547  0.89850504  0.40411376     0.70000
O136        O  0.50907364  0.89251972  0.39378697    -0.46900
C137        C  0.48494738  0.84922111  0.39731311     0.74700
O138        O  0.53123447  0.85967269  0.38841491    -0.58800
O139        O  0.48776458  0.85070085  0.41365953    -0.48900
O140        O  0.52552225  0.84254620  0.40973448    -0.55200
C141        C  0.53276591  0.87521358  0.43514842     0.84800
O142        O  0.49385173  0.88870264  0.41686527    -0.57100
O143        O  0.49543323  0.85747770  0.38769585    -0.60400
In144      In  0.39386383  0.76085663  0.34491294     1.36900
C145        C  0.41106221  0.78451560  0.36324410     0.77300
O146        O  0.40344232  0.74380887  0.36606334    -0.61100
O147        O  0.41374855  0.73935630  0.34056722    -0.52100
C148        C  0.36397770  0.74365833  0.34482377     0.70000
O149        O  0.36702298  0.75593268  0.35551547    -0.46900
C150        C  0.38841370  0.78114145  0.31732854     0.74700
O151        O  0.39627205  0.77906606  0.36820045    -0.58800
O152        O  0.39962986  0.76902044  0.31702351    -0.48900
O153        O  0.41643829  0.77807836  0.34903752    -0.55200
C154        C  0.41391404  0.73529903  0.35667233     0.84800
O155        O  0.37609561  0.74063778  0.33408051    -0.57100
O156        O  0.38007209  0.78242179  0.33150587    -0.60400
In157      In  0.12539496  0.75425075  0.14441235     1.36900
C158        C  0.10496964  0.72760135  0.13616775     0.77300
O159        O  0.14297515  0.73523966  0.15674831    -0.61100
O160        O  0.12562518  0.74932403  0.17346009    -0.52100
C161        C  0.15531300  0.76920307  0.13561696     0.70000
O162        O  0.14880350  0.75680894  0.12675606    -0.46900
C163        C  0.10366266  0.77953722  0.13538603     0.74700
O164        O  0.11717406  0.73240864  0.12607453    -0.58800
O165        O  0.10824465  0.77732065  0.15117080    -0.48900
O166        O  0.10336641  0.73656643  0.14990490    -0.55200
C167        C  0.13715356  0.73758485  0.17201586     0.84800
O168        O  0.14633516  0.77384690  0.14865893    -0.57100
O169        O  0.11049602  0.76908801  0.12464102    -0.60400
In170      In  0.99995073  0.64594611  0.10238772     1.36900
C171        C  0.97983988  0.66875137  0.11917970     0.77300
O172        O  0.02163976  0.65717918  0.11806469    -0.61100
O173        O  0.02193769  0.66161178  0.09063978    -0.52100
C174        C  0.01382805  0.61497340  0.10931862     0.70000
O175        O  0.00312604  0.62215446  0.11963290    -0.46900
C176        C  0.97846812  0.63847125  0.07596817     0.74700
O177        O  0.98351607  0.65409460  0.12579457    -0.58800
O178        O  0.99230626  0.64713089  0.07379891    -0.48900
O179        O  0.98625280  0.67125671  0.10422498    -0.55200
C180        C  0.02930855  0.66407426  0.10525321     0.84800
O181        O  0.01659602  0.62333396  0.09541234    -0.57100
O182        O  0.97604519  0.63337368  0.09147688    -0.60400
In183      In  0.89848413  0.77463570  0.15577456     1.36900
C184        C  0.91649417  0.80078181  0.14246708     0.77300
O185        O  0.88108518  0.79346691  0.16926133    -0.61100
O186        O  0.90160816  0.78213876  0.18421445    -0.52100
C187        C  0.86965248  0.75632751  0.15083447     0.70000
O188        O  0.87355014  0.76901664  0.14094679    -0.46900
C189        C  0.92070059  0.74985761  0.14644015     0.74700
O190        O  0.90326927  0.79475141  0.13451216    -0.58800
O191        O  0.91671439  0.75232703  0.16234531    -0.48900
O192        O  0.92006053  0.79340436  0.15676890    -0.55200
C193        C  0.88904769  0.79283372  0.18372523     0.84800
O194        O  0.88040443  0.75347236  0.16300026    -0.57100
O195        O  0.91327239  0.75995376  0.13578304    -0.60400
In196      In  0.01707471  0.87996810  0.09652529     1.36900
C197        C  0.03948231  0.85820194  0.11191561     0.77300
O198        O  0.99698188  0.86807183  0.11294901    -0.61100
O199        O  0.99451334  0.86428900  0.08543242    -0.52100
C200        C  0.00060416  0.90921990  0.10422565     0.70000
O201        O  0.01239684  0.90304497  0.11406221    -0.46900
C202        C  0.03699326  0.89109518  0.07055497     0.74700
O203        O  0.03584911  0.87286758  0.11859466    -0.58800
O204        O  0.02682137  0.87824628  0.06872550    -0.48900
O205        O  0.03174419  0.85511469  0.09769410    -0.55200
C206        C  0.98824126  0.86163874  0.10053758     0.84800
O207        O  0.99786924  0.90066763  0.09035340    -0.57100
O208        O  0.03661703  0.89818216  0.08544164    -0.60400
In209      In  0.39471033  0.26553649  0.64507787     1.36900
C210        C  0.41378527  0.29158816  0.63309164     0.77300
O211        O  0.37649763  0.28444297  0.65698632    -0.61100
O212        O  0.39679677  0.27431817  0.67318800    -0.52100
C213        C  0.36583721  0.24733030  0.64013902     0.70000
O214        O  0.37006353  0.25961011  0.62984057    -0.46900
C215        C  0.41596630  0.23987331  0.63628422     0.74700
O216        O  0.40095902  0.28577943  0.62430574    -0.58800
O217        O  0.41217606  0.24274331  0.65218560    -0.48900
O218        O  0.41666439  0.28376267  0.64731627    -0.55200
C219        C  0.38401211  0.28468033  0.67171329     0.84800
O220        O  0.37627936  0.24488640  0.65269418    -0.57100
O221        O  0.40903411  0.25019706  0.62548681    -0.60400
In222      In  0.49938774  0.13951779  0.59472518     1.36900
C223        C  0.47581031  0.15903562  0.61044782     0.77300
O224        O  0.51645813  0.14969819  0.61546450    -0.61100
O225        O  0.52120095  0.15851741  0.58942954    -0.52100
C226        C  0.51625485  0.10988885  0.59777573     0.70000
O227        O  0.50368698  0.11374247  0.60780669    -0.46900
C228        C  0.48078175  0.13261071  0.56640422     0.74700
O229        O  0.47975700  0.14420107  0.61658348    -0.58800
O230        O  0.49255384  0.14418499  0.56637272    -0.48900
O231        O  0.48357562  0.16302955  0.59649748    -0.55200
C232        C  0.52521697  0.15943584  0.60551573     0.84800
O233        O  0.51963030  0.12103289  0.58610494    -0.57100
O234        O  0.47906804  0.12452276  0.58068330    -0.60400
In235      In  0.61191306  0.25647322  0.64974583     1.36900
C236        C  0.59357757  0.23243362  0.63299273     0.77300
O237        O  0.62922911  0.23675711  0.66178820    -0.61100
O238        O  0.60890230  0.24710313  0.67760322    -0.52100
C239        C  0.64186837  0.27269613  0.64511300     0.70000
O240        O  0.63659040  0.26108842  0.63455660    -0.46900
C241        C  0.59182534  0.28399896  0.64443699     0.74700
O242        O  0.60712414  0.23903238  0.62631807    -0.58800
O243        O  0.59390055  0.27767433  0.65959018    -0.48900
O244        O  0.58959097  0.23836459  0.64783356    -0.55200
C245        C  0.62153421  0.23659389  0.67635166     0.84800
O246        O  0.63176988  0.27573243  0.65777938    -0.57100
O247        O  0.59981048  0.27604007  0.63245706    -0.60400
In248      In  0.50969556  0.37980851  0.59018597     1.36900
C249        C  0.53313467  0.35843585  0.60300077     0.77300
O250        O  0.49131220  0.36564066  0.60713977    -0.61100
O251        O  0.48819048  0.36268807  0.57953129    -0.52100
C252        C  0.49187551  0.40809100  0.59683345     0.70000
O253        O  0.50355817  0.40267960  0.60725743    -0.46900
C254        C  0.53115721  0.39344614  0.56688443     0.74700
O255        O  0.52728007  0.37095436  0.61211356    -0.58800
O256        O  0.52034805  0.38160077  0.56276660    -0.48900
O257        O  0.52683415  0.35712456  0.58779361    -0.55200
C258        C  0.48280369  0.35881225  0.59474730     0.84800
O259        O  0.48977710  0.39907982  0.58312643    -0.57100
O260        O  0.53030555  0.39855377  0.58258462    -0.60400
In261      In  0.36314705  0.12192496  0.25641867     1.36900
C262        C  0.37863729  0.09797056  0.27571452     0.77300
O263        O  0.35649734  0.13720436  0.28016531    -0.61100
O264        O  0.33587984  0.12409116  0.26691276    -0.52100
C265        C  0.37156170  0.15138553  0.24083505     0.70000
O266        O  0.38188178  0.14385897  0.25131598    -0.46900
C267        C  0.36416621  0.10342215  0.22735115     0.74700
O268        O  0.38599060  0.11229394  0.27214353    -0.58800
O269        O  0.34989761  0.10583058  0.23532625    -0.48900
O270        O  0.36340467  0.09636556  0.26975547    -0.55200
C271        C  0.34049846  0.13350954  0.27973222     0.84800
O272        O  0.35695806  0.14402297  0.23897510    -0.57100
O273        O  0.37724216  0.11052742  0.23434712    -0.60400
In274      In  0.41237875  0.01573600  0.13516550     1.36900
C275        C  0.40020434  0.04271739  0.15267887     0.77300
O276        O  0.39282624  0.00129200  0.15051735    -0.61100
O277        O  0.41923212  0.99386044  0.15406709    -0.52100
C278        C  0.40388028  0.99969494  0.10578209     0.70000
O279        O  0.39574078  0.01304527  0.11098589    -0.46900
C280        C  0.44120313  0.03183885  0.12507113     0.74700
O281        O  0.39148685  0.03579493  0.14044939    -0.58800
O282        O  0.44123175  0.02102033  0.13757664    -0.48900
O283        O  0.41482974  0.03590738  0.15556099    -0.55200
C284        C  0.40347950  0.99163060  0.15840733     0.84800
O285        O  0.41614186  0.99485329  0.11566274    -0.57100
O286        O  0.42678073  0.03338242  0.11730570    -0.60400
In287      In  0.35793855  0.89161759  0.24144168     1.36900
C288        C  0.37584231  0.91431193  0.22227851     0.77300
O289        O  0.34779777  0.87968006  0.21710271    -0.61100
O290        O  0.33029408  0.89483465  0.23244946    -0.52100
C291        C  0.36134011  0.86054306  0.25618467     0.70000
O292        O  0.37304410  0.86666959  0.24624350    -0.46900
C293        C  0.36118066  0.90818588  0.27128960     0.74700
O294        O  0.38133767  0.89895185  0.22480464    -0.58800
O295        O  0.34677450  0.90774019  0.26323830    -0.48900
O296        O  0.36159211  0.91770751  0.22967693    -0.55200
C297        C  0.33270672  0.88601196  0.21868475     0.84800
O298        O  0.34791346  0.86989863  0.25746955    -0.57100
O299        O  0.37350553  0.90020042  0.26391488    -0.60400
In300      In  0.41368337  0.99501951  0.36000735     1.36900
C301        C  0.40072054  0.96751954  0.34439218     0.77300
O302        O  0.39400445  0.00839586  0.34381247    -0.61100
O303        O  0.42054091  0.01528835  0.33968161    -0.52100
C304        C  0.40791055  0.01384366  0.38833525     0.70000
O305        O  0.39861545  0.00069330  0.38468119    -0.46900
C306        C  0.44158403  0.97790923  0.37030709     0.74700
O307        O  0.39210989  0.97552886  0.35602139    -0.58800
O308        O  0.44213212  0.98854397  0.35763905    -0.48900
O309        O  0.41557938  0.97364706  0.34111550    -0.55200
C310        C  0.40475831  0.01752596  0.33541770     0.84800
O311        O  0.41984615  0.01705949  0.37747109    -0.57100
O312        O  0.42709454  0.97698150  0.37805205    -0.60400
In313      In  0.37171432  0.09832855  0.49063293     1.36900
C314        C  0.35136027  0.11537720  0.46861774     0.77300
O315        O  0.38631476  0.08669505  0.46853070    -0.61100
O316        O  0.36831819  0.07040199  0.48196981    -0.52100
C317        C  0.40211598  0.10285226  0.50635411     0.70000
O318        O  0.39650582  0.11354216  0.49507831    -0.46900
C319        C  0.35151567  0.10448994  0.51800244     0.74700
O320        O  0.36606603  0.12145558  0.47305127    -0.58800
O321        O  0.35398594  0.08911318  0.51250058    -0.48900
O322        O  0.34783616  0.10065429  0.47496644    -0.55200
C323        C  0.37914962  0.07193254  0.46959576     0.84800
O324        O  0.39224956  0.08999038  0.50913975    -0.57100
O325        O  0.35978654  0.11607752  0.50981043    -0.60400
In326      In  0.26264734  0.16299486  0.60664840     1.36900
C327        C  0.28635301  0.14926729  0.58549659     0.77300
O328        O  0.24480624  0.14499232  0.59278082    -0.61100
O329        O  0.23956261  0.17204640  0.59035602    -0.52100
C330        C  0.24867676  0.15540536  0.63769903     0.70000
O331        O  0.26030452  0.14600690  0.63073887    -0.46900
C332        C  0.28271532  0.19004598  0.61491202     0.74700
O333        O  0.28141436  0.14135557  0.59916104    -0.58800
O334        O  0.26969573  0.19164753  0.60484562    -0.48900
O335        O  0.27896446  0.16367943  0.58286713    -0.55200
C336        C  0.23526779  0.15664333  0.58623307     0.84800
O337        O  0.24451193  0.16860709  0.62880346    -0.57100
O338        O  0.28465019  0.17498639  0.62120483    -0.60400
In339      In  0.14233347  0.09888196  0.50048233     1.36900
C340        C  0.16449479  0.11281067  0.52317569     0.77300
O341        O  0.12477050  0.08992138  0.52157377    -0.61100
O342        O  0.14170649  0.07110373  0.51010808    -0.52100
C343        C  0.11347232  0.10543039  0.48302733     0.70000
O344        O  0.11899687  0.11562612  0.49489764    -0.46900
C345        C  0.16253544  0.10223614  0.47276850     0.74700
O346        O  0.15117754  0.12124120  0.51821123    -0.58800
O347        O  0.16002263  0.08755502  0.47990602    -0.48900
O348        O  0.16588458  0.09784786  0.51655879    -0.55200
C349        C  0.13023382  0.07442032  0.52151953     0.84800
O350        O  0.12249166  0.09186527  0.48071692    -0.57100
O351        O  0.15472202  0.11482820  0.47991949    -0.60400
In352      In  0.25076839  0.15399886  0.38265982     1.36900
C353        C  0.22443336  0.13997856  0.39966126     0.77300
O354        O  0.26489650  0.13440548  0.39803544    -0.61100
O355        O  0.27124371  0.16102955  0.40286555    -0.52100
C356        C  0.26924081  0.14812166  0.35400688     0.70000
O357        O  0.25575936  0.13940024  0.35775378    -0.46900
C358        C  0.23219404  0.18147485  0.37344388     0.74700
O359        O  0.23182726  0.13184204  0.38728387    -0.58800
O360        O  0.24422765  0.18242933  0.38478204    -0.48900
O361        O  0.23062628  0.15481271  0.40304979    -0.55200
C362        C  0.27376872  0.14518417  0.40673919     0.84800
O363        O  0.27301667  0.15995936  0.36485412    -0.57100
O364        O  0.23066742  0.16678503  0.36612839    -0.60400
In365      In  0.76506802  0.67609049  0.11324227     1.36900
C366        C  0.78890327  0.66401849  0.09154482     0.77300
O367        O  0.74873044  0.65885859  0.09725049    -0.61100
O368        O  0.74230339  0.68581163  0.09681100    -0.52100
C369        C  0.74907814  0.66443579  0.14156856     0.70000
O370        O  0.76230157  0.65692371  0.13522749    -0.46900
C371        C  0.78483889  0.70191264  0.12498903     0.74700
O372        O  0.78347282  0.65508742  0.10434421    -0.58800
O373        O  0.77249339  0.70447975  0.11428223    -0.48900
O374        O  0.78231638  0.67899373  0.09023234    -0.55200
C375        C  0.73884146  0.67056054  0.09140053     0.84800
O376        O  0.74465476  0.67825750  0.13378270    -0.57100
O377        O  0.78592546  0.68650485  0.13061862    -0.60400
In378      In  0.86983749  0.60980679  0.99423190     1.36900
C379        C  0.85195923  0.62386018  0.96812558     0.77300
O380        O  0.88876691  0.59767543  0.97616739    -0.61100
O381        O  0.86830803  0.58157601  0.98585811    -0.52100
C382        C  0.89716331  0.61486005  0.01481958     0.70000
O383        O  0.89445888  0.62440418  0.00153370    -0.46900
C384        C  0.84729722  0.61791721  0.01905015     0.74700
O385        O  0.86543712  0.63129025  0.97424321    -0.58800
O386        O  0.84986299  0.60221569  0.01452738    -0.48900
O387        O  0.84822333  0.60954877  0.97528323    -0.55200
C388        C  0.88145156  0.58294041  0.97593250     0.84800
O389        O  0.88620013  0.60276657  0.01695124    -0.57100
O390        O  0.85597333  0.62903722  0.01057014    -0.60400
In391      In  0.75182912  0.65627220  0.87745639     1.36900
C392        C  0.72523529  0.64592226  0.89670531     0.77300
O393        O  0.76602611  0.63669457  0.89298976    -0.61100
O394        O  0.77517168  0.66278269  0.89470534    -0.52100
C395        C  0.76794104  0.64736898  0.84821335     0.70000
O396        O  0.75515533  0.63862145  0.85395311    -0.46900
C397        C  0.73553317  0.68446554  0.86602208     0.74700
O398        O  0.73090699  0.63658498  0.88426280    -0.58800
O399        O  0.74601405  0.68516183  0.87884469    -0.48900
O400        O  0.73306636  0.66019741  0.89888376    -0.55200
C401        C  0.77698170  0.64708228  0.89949174     0.84800
O402        O  0.77206259  0.66041424  0.85742162    -0.57100
O403        O  0.73415672  0.66966537  0.85891345    -0.60400
In404      In  0.64776464  0.61224954  0.00439075     1.36900
C405        C  0.67095572  0.62619871  0.02601995     0.77300
O406        O  0.63191591  0.60378433  0.02718684    -0.61100
O407        O  0.64648368  0.58437968  0.01371693    -0.52100
C408        C  0.61723833  0.62084475  0.99085212     0.70000
O409        O  0.62538560  0.63091207  0.00115966    -0.46900
C410        C  0.66603741  0.61371245  0.97493645     0.74700
O411        O  0.65798705  0.63484786  0.02066931    -0.58800
O412        O  0.66315817  0.59938928  0.98260037    -0.48900
O413        O  0.67194587  0.61097126  0.01995178    -0.55200
C414        C  0.63627153  0.58797313  0.02620740     0.84800
O415        O  0.62472842  0.60652074  0.98782979    -0.57100
O416        O  0.65955095  0.62682890  0.98240702    -0.60400
In417      In  0.15977602  0.12872386  0.73906581     1.36900
C418        C  0.14807172  0.10625212  0.71556479     0.77300
O419        O  0.16894333  0.14577184  0.71759023    -0.61100
O420        O  0.18807324  0.13028351  0.73041360    -0.52100
C421        C  0.15067351  0.15869147  0.75342901     0.70000
O422        O  0.14111922  0.15104394  0.74226231    -0.46900
C423        C  0.15473780  0.10910980  0.76733755     0.74700
O424        O  0.13888459  0.11907558  0.72041280    -0.58800
O425        O  0.16991644  0.11274607  0.76190431    -0.48900
O426        O  0.16272832  0.10511973  0.72291665    -0.55200
C427        C  0.18467668  0.14111522  0.71835347     0.84800
O428        O  0.16476544  0.15094476  0.75695701    -0.57100
O429        O  0.14260175  0.11555661  0.75831022    -0.60400
In430      In  0.10542173  0.00246727  0.63532858     1.36900
C431        C  0.11735963  0.97802844  0.65653109     0.77300
O432        O  0.12226081  0.02147494  0.64928606    -0.61100
O433        O  0.09498510  0.02571943  0.65037940    -0.52100
C434        C  0.11512567  0.01495243  0.60459516     0.70000
O435        O  0.12471270  0.00469005  0.61324199    -0.46900
C436        C  0.07845327  0.98330893  0.62549559     0.74700
O437        O  0.12582000  0.98261465  0.64310879    -0.58800
O438        O  0.07691752  0.99548038  0.63657128    -0.48900
O439        O  0.10345247  0.98631294  0.65904070    -0.55200
C440        C  0.10999417  0.03080837  0.65491532     0.84800
O441        O  0.10083501  0.01868104  0.61183038    -0.57100
O442        O  0.09343377  0.98178359  0.61895165    -0.60400
In443      In  0.16502491  0.89430170  0.75405588     1.36900
C444        C  0.14894852  0.91579657  0.77588550     0.77300
O445        O  0.17762492  0.88094485  0.77650329    -0.61100
O446        O  0.19346728  0.89778116  0.76127616    -0.52100
C447        C  0.15647067  0.86349989  0.74066195     0.70000
O448        O  0.14726329  0.87099531  0.75210074    -0.46900
C449        C  0.15890197  0.91260202  0.72527346     0.74700
O450        O  0.14334814  0.90057263  0.77294154    -0.58800
O451        O  0.17429845  0.90914190  0.73008693    -0.48900
O452        O  0.16278285  0.91963466  0.76790489    -0.55200
C453        C  0.19233601  0.88794753  0.77449540     0.84800
O454        O  0.17034976  0.87144761  0.73682773    -0.57100
O455        O  0.14721209  0.90649441  0.73503999    -0.60400
In456      In  0.10491801  0.01814239  0.85740387     1.36900
C457        C  0.11558678  0.04564182  0.83955541     0.77300
O458        O  0.12567610  0.00557323  0.84222662    -0.61100
O459        O  0.09966649  0.99645386  0.83806078    -0.52100
C460        C  0.11028897  0.99831164  0.88520394     0.70000
O461        O  0.11977539  0.01151078  0.88201559    -0.46900
C462        C  0.07825573  0.03520171  0.87051026     0.74700
O463        O  0.12471634  0.03931801  0.85189766    -0.58800
O464        O  0.07656471  0.02591374  0.85682145    -0.48900
O465        O  0.10126865  0.03798011  0.83682439    -0.55200
C466        C  0.11572048  0.99510621  0.83429460     0.84800
O467        O  0.09852375  0.99537394  0.87397112    -0.57100
O468        O  0.09318157  0.03489219  0.87748245    -0.60400
In469      In  0.38375458  0.90692564  0.00599143     1.36900
C470        C  0.36212328  0.89038887  0.02702727     0.77300
O471        O  0.39854944  0.91662500  0.02857662    -0.61100
O472        O  0.38203050  0.93480286  0.01550905    -0.52100
C473        C  0.41368303  0.90231736  0.98976975     0.70000
O474        O  0.40864585  0.89244649  0.00204628    -0.46900
C475        C  0.36442473  0.89930686  0.97872650     0.74700
O476        O  0.37675576  0.88383601  0.02310271    -0.58800
O477        O  0.36604397  0.91501052  0.98376608    -0.48900
O478        O  0.35932115  0.90528895  0.02065662    -0.55200
C479        C  0.39260106  0.93192524  0.02794086     0.84800
O480        O  0.40355874  0.91482342  0.98629575    -0.57100
O481        O  0.37300043  0.88829434  0.98740672    -0.60400
In482      In  0.25522223  0.85726671  0.10759663     1.36900
C483        C  0.22969269  0.86937019  0.08776951     0.77300
O484        O  0.27073451  0.87551001  0.09230499    -0.61100
O485        O  0.27684535  0.84854189  0.08924523    -0.52100
C486        C  0.27482758  0.86465846  0.13484173     0.70000
O487        O  0.26167861  0.87396403  0.13113766    -0.46900
C488        C  0.23608197  0.83225528  0.12120918     0.74700
O489        O  0.23605643  0.87845747  0.10011898    -0.58800
O490        O  0.24666366  0.82917802  0.10883376    -0.48900
O491        O  0.23646263  0.85450065  0.08591118    -0.55200
C492        C  0.28018051  0.86418843  0.08502709     0.84800
O493        O  0.27712440  0.85158989  0.12505929    -0.57100
O494        O  0.23629351  0.84770101  0.12693506    -0.60400
In495      In  0.27065657  0.86401469  0.88592602     1.36900
C496        C  0.29629697  0.87843517  0.90355472     0.77300
O497        O  0.25533636  0.88492619  0.89817330    -0.61100
O498        O  0.24904722  0.85873284  0.90509874    -0.52100
C499        C  0.25209005  0.86652605  0.85698227     0.70000
O500        O  0.26447050  0.87700973  0.86021290    -0.46900
C501        C  0.28931258  0.83633649  0.87824423     0.74700
O502        O  0.29068267  0.88529706  0.88953858    -0.58800
O503        O  0.27755822  0.83586680  0.88988010    -0.48900
O504        O  0.28870822  0.86458139  0.90812758    -0.55200
C505        C  0.24570629  0.87481205  0.90684868     0.84800
O506        O  0.24983953  0.85480754  0.86833073    -0.57100
O507        O  0.29069923  0.85067290  0.87024640    -0.60400
In508      In  0.14405676  0.91529125  0.98958224     1.36900
C509        C  0.16484775  0.90051449  0.96628617     0.77300
O510        O  0.12874943  0.92692200  0.96775860    -0.61100
O511        O  0.14566739  0.94373167  0.98196571    -0.52100
C512        C  0.11340371  0.90692611  0.00301992     0.70000
O513        O  0.12095418  0.89740402  0.99185817    -0.46900
C514        C  0.16433554  0.91022193  0.01765026     0.74700
O515        O  0.15148232  0.89274331  0.97196633    -0.58800
O516        O  0.16104483  0.92536182  0.01200313    -0.48900
O517        O  0.16710063  0.91558973  0.97238495    -0.55200
C518        C  0.13519253  0.94197251  0.96926512     0.84800
O519        O  0.12141261  0.92080937  0.00681537    -0.57100
O520        O  0.15693923  0.89822015  0.00920179    -0.60400
In521      In  0.39793469  0.75698622  0.85274702     1.36900
C522        C  0.41730633  0.73327692  0.86829646     0.77300
O523        O  0.38272424  0.73619863  0.83983329    -0.61100
O524        O  0.40230649  0.74899556  0.82473123    -0.52100
C525        C  0.36875959  0.77473501  0.85422970     0.70000
O526        O  0.37203895  0.76273651  0.86517258    -0.46900
C527        C  0.41723515  0.78361103  0.86261618     0.74700
O528        O  0.40263506  0.73752840  0.87464334    -0.58800
O529        O  0.41639725  0.77885616  0.84673143    -0.48900
O530        O  0.42149400  0.74120345  0.85447591    -0.55200
C531        C  0.39068897  0.73727204  0.82540865     0.84800
O532        O  0.38007029  0.77681216  0.84243076    -0.57100
O533        O  0.40811460  0.77476276  0.87309101    -0.60400
In534      In  0.52048575  0.64669194  0.89814471     1.36900
C535        C  0.54546198  0.66654224  0.88492325     0.77300
O536        O  0.50350208  0.65966300  0.87920862    -0.61100
O537        O  0.49895742  0.66520534  0.90621344    -0.52100
C538        C  0.50212864  0.61776591  0.89427527     0.70000
O539        O  0.51383753  0.62200622  0.88333488    -0.46900
C540        C  0.53994678  0.63542985  0.92411544     0.74700
O541        O  0.53963243  0.65353525  0.87643653    -0.58800
O542        O  0.52921313  0.64781291  0.92618322    -0.48900
O543        O  0.53834906  0.66906595  0.89958348    -0.55200
C544        C  0.49471313  0.66795377  0.89040334     0.84800
O545        O  0.50030139  0.62823289  0.90691925    -0.57100
O546        O  0.54030610  0.62884973  0.90893833    -0.60400
In547      In  0.51083350  0.87777478  0.89570364     1.36900
C548        C  0.48601859  0.85837020  0.88227622     0.77300
O549        O  0.52704244  0.86174941  0.87808515    -0.61100
O550        O  0.53186659  0.85972766  0.90552967    -0.52100
C551        C  0.53025039  0.90540176  0.88946038     0.70000
O552        O  0.51803002  0.90097982  0.87918643    -0.46900
C553        C  0.48975894  0.89018253  0.92009958     0.74700
O554        O  0.49206755  0.87136509  0.87399700    -0.58800
O555        O  0.50101454  0.87857666  0.92349138    -0.48900
O556        O  0.49293869  0.85551235  0.89699234    -0.55200
C557        C  0.53592983  0.85491404  0.89016784     0.84800
O558        O  0.53208904  0.89578762  0.90272946    -0.57100
O559        O  0.49021385  0.89594998  0.90463955    -0.60400
In560      In  0.62923607  0.76566606  0.83997545     1.36900
C561        C  0.60527083  0.78810534  0.85077392     0.77300
O562        O  0.64432263  0.78849554  0.83040656    -0.61100
O563        O  0.63189966  0.77235688  0.81139982    -0.52100
C564        C  0.65919443  0.75177255  0.85023879     0.70000
O565        O  0.65100846  0.76259075  0.85969080    -0.46900
C566        C  0.60971601  0.73743871  0.84454937     0.74700
O567        O  0.61859599  0.78471677  0.85997149    -0.58800
O568        O  0.61323828  0.74307367  0.82937260    -0.48900
O569        O  0.60453888  0.78004157  0.83640834    -0.55200
C570        C  0.64078960  0.78594817  0.81445667     0.84800
O571        O  0.65211525  0.74855227  0.83565478    -0.57100
O572        O  0.61643006  0.74611784  0.85686047    -0.60400
In573      In  0.75160479  0.16633105  0.11017361     1.36900
C574        C  0.72820804  0.15480478  0.08806080     0.77300
O575        O  0.73051795  0.17519477  0.12736906    -0.61100
O576        O  0.74206389  0.19409041  0.11025649    -0.52100
C577        C  0.76973896  0.16352915  0.13915589     0.70000
O578        O  0.75775754  0.15270225  0.13535977    -0.46900
C579        C  0.77697332  0.15486724  0.09028022     0.74700
O580        O  0.73212480  0.14605638  0.10164415    -0.58800
O581        O  0.77386612  0.17111485  0.09153475    -0.48900
O582        O  0.73618383  0.16912238  0.08631704    -0.55200
C583        C  0.73060639  0.19071825  0.12178683     0.84800
O584        O  0.77195716  0.17569127  0.12817554    -0.57100
O585        O  0.76730914  0.14512949  0.09943414    -0.60400
In586      In  0.87041086  0.10726437  0.00124254     1.36900
C587        C  0.85151302  0.12419503  0.02460779     0.77300
O588        O  0.85729042  0.12446089  0.98250157    -0.61100
O589        O  0.85116839  0.09739112  0.98109639    -0.52100
C590        C  0.89911030  0.11110649  0.98275276     0.70000
O591        O  0.89500124  0.12178643  0.99471556    -0.46900
C592        C  0.88122397  0.08208716  0.02188184     0.74700
O593        O  0.86521263  0.13085328  0.01823647    -0.58800
O594        O  0.86901174  0.07968629  0.01098350    -0.48900
O595        O  0.84806176  0.10904305  0.01922210    -0.55200
C596        C  0.84849635  0.11259648  0.97522976     0.84800
O597        O  0.88865652  0.09856464  0.98068886    -0.57100
O598        O  0.88778165  0.09716397  0.02189654    -0.60400
In599      In  0.76272565  0.16748588  0.88124098     1.36900
C600        C  0.78389027  0.15481361  0.90556606     0.77300
O601        O  0.78503746  0.17839678  0.86624894    -0.61100
O602        O  0.77037035  0.19593188  0.88196666    -0.52100
C603        C  0.75229603  0.15775637  0.84971856     0.70000
O604        O  0.76307032  0.14879339  0.85844037    -0.46900
C605        C  0.73245123  0.16350693  0.89763311     0.74700
O606        O  0.77958191  0.14588413  0.89232170    -0.58800
O607        O  0.73876035  0.17846774  0.89474152    -0.48900
O608        O  0.77715202  0.16973934  0.90620969    -0.55200
C609        C  0.78330041  0.19372252  0.87194618     0.84800
O610        O  0.74721077  0.17152051  0.85720018    -0.57100
O611        O  0.74161714  0.15107987  0.89207954    -0.60400
In612      In  0.64747605  0.10651964  0.98732059     1.36900
C613        C  0.66311358  0.12128584  0.96015694     0.77300
O614        O  0.66144814  0.12472337  0.00476910    -0.61100
O615        O  0.66704689  0.09768583  0.00747288    -0.52100
C616        C  0.61975760  0.11040969  0.00715417     0.70000
O617        O  0.62278798  0.12056651  0.99441890    -0.46900
C618        C  0.63552429  0.07960370  0.96964415     0.74700
O619        O  0.65124065  0.12917970  0.96848925    -0.58800
O620        O  0.64950261  0.07867301  0.97842936    -0.48900
O621        O  0.66692991  0.10645980  0.96607760    -0.55200
C622        C  0.66955138  0.11303858  0.01302543     0.84800
O623        O  0.63084954  0.09849590  0.00935280    -0.57100
O624        O  0.62766825  0.09400560  0.97054656    -0.60400
In625      In  0.51659701  0.14118349  0.09206202     1.36900
C626        C  0.53998103  0.16025031  0.10881473     0.77300
O627        O  0.53858372  0.12653345  0.08043258    -0.61100
O628        O  0.52479421  0.14411927  0.06394456    -0.52100
C629        C  0.50029689  0.11102769  0.09557523     0.70000
O630        O  0.51159081  0.11612558  0.10654397    -0.46900
C631        C  0.48959250  0.16187846  0.09781848     0.74700
O632        O  0.53445038  0.14610126  0.11527753    -0.58800
O633        O  0.49592981  0.15982813  0.08267394    -0.48900
O634        O  0.53343338  0.16420679  0.09422758    -0.55200
C635        C  0.53732720  0.13354652  0.06555797     0.84800
O636        O  0.49780938  0.12125463  0.08290725    -0.57100
O637        O  0.49706387  0.15325252  0.10968565    -0.60400
In638      In  0.39524568  0.24882446  0.14804524     1.36900
C639        C  0.41677968  0.22450398  0.13681855     0.77300
O640        O  0.40927411  0.26713113  0.13080734    -0.61100
O641        O  0.41092636  0.27158340  0.15827804    -0.52100
C642        C  0.36567515  0.26383261  0.13919042     0.70000
O643        O  0.37276395  0.25239004  0.12957629    -0.46900
C644        C  0.38345338  0.22903321  0.17348532     0.74700
O645        O  0.40446881  0.22998288  0.12723282    -0.58800
O646        O  0.39491762  0.24060820  0.17626656    -0.48900
O647        O  0.41790553  0.23167874  0.15161400    -0.55200
C648        C  0.41505239  0.27656341  0.14303097     0.84800
O649        O  0.37366560  0.26713370  0.15327874    -0.57100
O650        O  0.37758642  0.22845927  0.15805142    -0.60400
In651      In  0.61959414  0.26617651  0.14761200     1.36900
C652        C  0.59805978  0.29059086  0.13670015     0.77300
O653        O  0.60686134  0.25066498  0.12727992    -0.61100
O654        O  0.60457810  0.24126874  0.15336977    -0.52100
C655        C  0.65040472  0.25364041  0.13870726     0.70000
O656        O  0.64327482  0.26587316  0.13022781    -0.46900
C657        C  0.62833979  0.28339992  0.17617810     0.74700
O658        O  0.61148555  0.28657108  0.12798546    -0.58800
O659        O  0.61761519  0.27084234  0.17675537    -0.48900
O660        O  0.59586664  0.28203333  0.15060194    -0.55200
C661        C  0.60099615  0.23907155  0.13731226     0.84800
O662        O  0.64184634  0.24833250  0.15176247    -0.57100
O663        O  0.63473802  0.28638764  0.16127273    -0.60400
In664      In  0.49864057  0.37404630  0.09336316     1.36900
C665        C  0.47456029  0.35196290  0.10416538     0.77300
O666        O  0.47770278  0.39221017  0.08641913    -0.61100
O667        O  0.48934726  0.37750322  0.06568163    -0.52100
C668        C  0.51536761  0.40287561  0.10203742     0.70000
O669        O  0.50412301  0.39596306  0.11201620    -0.46900
C670        C  0.52552556  0.35325350  0.09775857     0.74700
O671        O  0.48027530  0.36395245  0.11407855    -0.58800
O672        O  0.52031323  0.35733303  0.08253319    -0.48900
O673        O  0.48131622  0.35145197  0.08912591    -0.55200
C674        C  0.47788346  0.38848855  0.07031273     0.84800
O675        O  0.51777155  0.39500091  0.08769277    -0.57100
O676        O  0.51679806  0.35970513  0.11014942    -0.60400
In677      In  0.66096895  0.39177043  0.25257044     1.36900
C678        C  0.64496323  0.41237096  0.27487412     0.77300
O679        O  0.67383897  0.37773254  0.27422300    -0.61100
O680        O  0.68873847  0.39696234  0.26072532    -0.52100
C681        C  0.65820578  0.36155542  0.23663312     0.70000
O682        O  0.64797814  0.36579515  0.24894170    -0.46900
C683        C  0.65013465  0.40984743  0.22544695     0.74700
O684        O  0.63931983  0.39712980  0.27174139    -0.58800
O685        O  0.66626167  0.40850956  0.22888986    -0.48900
O686        O  0.65871843  0.41647880  0.26683757    -0.55200
C687        C  0.68802809  0.38598118  0.27309059     0.84800
O688        O  0.66999927  0.37253595  0.23325136    -0.57100
O689        O  0.64013707  0.40161803  0.23559386    -0.60400
In690      In  0.60691581  0.51520414  0.35923380     1.36900
C691        C  0.61697577  0.53983011  0.33754130     0.77300
O692        O  0.62711733  0.50001825  0.34571283    -0.61100
O693        O  0.60066308  0.49242165  0.34149597    -0.52100
C694        C  0.61193419  0.49886796  0.38915462     0.70000
O695        O  0.62242413  0.51060227  0.38401714    -0.46900
C696        C  0.58029014  0.53404055  0.36935545     0.74700
O697        O  0.62619504  0.53590646  0.35080529    -0.58800
O698        O  0.57851736  0.52159764  0.35853076    -0.48900
O699        O  0.60301768  0.53126740  0.33594685    -0.55200
C700        C  0.61659991  0.49004356  0.33786154     0.84800
O701        O  0.59932884  0.49588563  0.37893507    -0.57100
O702        O  0.59550540  0.53613834  0.37538190    -0.60400
In703      In  0.61076501  0.49778368  0.12776007     1.36900
C704        C  0.62375371  0.47208227  0.14658436     0.77300
O705        O  0.62999977  0.51187882  0.14389636    -0.61100
O706        O  0.60359822  0.51981983  0.14647594    -0.52100
C707        C  0.61908018  0.51592873  0.09939244     0.70000
O708        O  0.62813501  0.50321411  0.10472752    -0.46900
C709        C  0.58413988  0.47911750  0.11603666     0.74700
O710        O  0.63142158  0.47763091  0.13299643    -0.58800
O711        O  0.58232697  0.49005815  0.12835852    -0.48900
O712        O  0.60936769  0.47931720  0.14986116    -0.55200
C713        C  0.61930226  0.52189815  0.15128567     0.84800
O714        O  0.60566406  0.51900313  0.10844330    -0.57100
O715        O  0.59920304  0.47850891  0.10949567    -0.60400
In716      In  0.65729870  0.62430807  0.23724055     1.36900
C717        C  0.64323092  0.60052170  0.21607691     0.77300
O718        O  0.66448702  0.64050216  0.21465040    -0.61100
O719        O  0.68487107  0.62592569  0.22663403    -0.52100
C720        C  0.64880213  0.65445923  0.25224278     0.70000
O721        O  0.63868081  0.64660557  0.24174093    -0.46900
C722        C  0.65384117  0.60536815  0.26581352     0.74700
O723        O  0.63540016  0.61448012  0.22012477    -0.58800
O724        O  0.66883971  0.60962667  0.26029452    -0.48900
O725        O  0.65823562  0.59903034  0.22269196    -0.55200
C726        C  0.68041361  0.63652108  0.21471053     0.84800
O727        O  0.66318992  0.64689189  0.25476987    -0.57100
O728        O  0.64131563  0.61120565  0.25691253    -0.60400
In729      In  0.12910156  0.76372619  0.64960808     1.36900
C730        C  0.10992263  0.78774602  0.63402503     0.77300
O731        O  0.11595849  0.74720473  0.63019246    -0.61100
O732        O  0.11077282  0.74195036  0.65717762    -0.52100
C733        C  0.15813250  0.74520354  0.64688068     0.70000
O734        O  0.15415176  0.75679250  0.63573883    -0.46900
C735        C  0.13928959  0.78504649  0.67465747     0.74700
O736        O  0.12368990  0.78182725  0.62700332    -0.58800
O737        O  0.12705921  0.77419995  0.67724064    -0.48900
O738        O  0.10639213  0.78144164  0.64887225    -0.55200
C739        C  0.10785336  0.73812304  0.64126392     0.84800
O740        O  0.14737629  0.74353048  0.65927597    -0.57100
O741        O  0.14614769  0.78438374  0.65965219    -0.60400
In742      In  0.00788612  0.87057960  0.59176584     1.36900
C743        C  0.98331476  0.84896142  0.60195754     0.77300
O744        O  0.98720304  0.88645944  0.57987069    -0.61100
O745        O  0.00118015  0.86913668  0.56300904    -0.52100
C746        C  0.02352809  0.90077255  0.59609012     0.70000
O747        O  0.01138303  0.89585525  0.60624016    -0.46900
C748        C  0.03407596  0.85218002  0.60425341     0.74700
O749        O  0.98680604  0.86261481  0.61072652    -0.58800
O750        O  0.03154037  0.85360592  0.58786922    -0.48900
O751        O  0.99269076  0.84650016  0.58860586    -0.55200
C752        C  0.98889132  0.88010609  0.56468049     0.84800
O753        O  0.02722648  0.89024694  0.58388874    -0.57100
O754        O  0.02323267  0.86016384  0.61374878    -0.60400
In755      In  0.89946976  0.74802488  0.64189921     1.36900
C756        C  0.92114902  0.72483345  0.62859183     0.77300
O757        O  0.91227184  0.76757519  0.62491321    -0.61100
O758        O  0.91438518  0.77109214  0.65244607    -0.52100
C759        C  0.86923640  0.76174862  0.63340570     0.70000
O760        O  0.87672699  0.75074506  0.62361200    -0.46900
C761        C  0.88893973  0.72862353  0.66843674     0.74700
O762        O  0.90757147  0.72944257  0.62042726    -0.58800
O763        O  0.90070416  0.74003935  0.67029418    -0.48900
O764        O  0.92338573  0.73218989  0.64316734    -0.55200
C765        C  0.91816523  0.77665937  0.63733740     0.84800
O766        O  0.87723664  0.76534217  0.64739744    -0.57100
O767        O  0.88256074  0.72759309  0.65325193    -0.60400
In768      In  0.02372707  0.63640913  0.60322349     1.36900
C769        C  0.04751713  0.65717340  0.61709501     0.77300
O770        O  0.04436063  0.62106457  0.58976530    -0.61100
O771        O  0.03011347  0.63946484  0.57464167    -0.52100
C772        C  0.00692565  0.60698308  0.61019511     0.70000
O773        O  0.01932072  0.61241939  0.61972531    -0.46900
C774        C  0.99755210  0.65705747  0.61145342     0.74700
O775        O  0.03880693  0.66071855  0.60358538    -0.58800
O776        O  0.00686682  0.64933329  0.62260763    -0.48900
O777        O  0.04428034  0.64238816  0.62374322    -0.55200
C778        C  0.04235131  0.62845502  0.57514697     0.84800
O779        O  0.00378644  0.61631892  0.59696869    -0.57100
O780        O  0.00146746  0.65397916  0.59563931    -0.60400
In781      In  0.26631134  0.35407813  0.11289262     1.36900
C782        C  0.29059614  0.36859991  0.09333299     0.77300
O783        O  0.28669146  0.34480904  0.13109337    -0.61100
O784        O  0.27654669  0.32669585  0.11240947    -0.52100
C785        C  0.24757358  0.35832637  0.14147005     0.70000
O786        O  0.25897452  0.36945414  0.13701083    -0.46900
C787        C  0.23985391  0.35824932  0.09118987     0.74700
O788        O  0.28376209  0.37694165  0.10592131    -0.58800
O789        O  0.24610875  0.34330563  0.09432283    -0.48900
O790        O  0.28468396  0.35345937  0.09097563    -0.55200
C791        C  0.28732402  0.32965797  0.12463985     0.84800
O792        O  0.24646663  0.34517783  0.13157994    -0.57100
O793        O  0.24737178  0.37065850  0.09900430    -0.60400
In794      In  0.14305741  0.40559775  0.00525247     1.36900
C795        C  0.16476730  0.39474139  0.02955891     0.77300
O796        O  0.15628074  0.38638441  0.98901321    -0.61100
O797        O  0.15960415  0.41302997  0.98182466    -0.52100
C798        C  0.11418309  0.39706018  0.98899271     0.70000
O799        O  0.11980471  0.38819050  0.00180975    -0.46900
C800        C  0.13124799  0.43215418  0.02368398     0.74700
O801        O  0.15184597  0.38547546  0.02499466    -0.58800
O802        O  0.14317836  0.43405259  0.01238169    -0.48900
O803        O  0.16614485  0.40913260  0.02174868    -0.55200
C804        C  0.16298608  0.39716880  0.97857080     0.84800
O805        O  0.12321502  0.41026824  0.98508802    -0.57100
O806        O  0.12510123  0.41692750  0.02484938    -0.60400
In807      In  0.25248286  0.35688994  0.88296275     1.36900
C808        C  0.22911858  0.37324085  0.90240175     0.77300
O809        O  0.23078759  0.34444083  0.86843869    -0.61100
O810        O  0.24487638  0.32865221  0.88638342    -0.52100
C811        C  0.26711575  0.36332562  0.85226310     0.70000
O812        O  0.25519928  0.37284859  0.85845831    -0.46900
C813        C  0.27974488  0.36283670  0.90347611     0.74700
O814        O  0.23498879  0.38007698  0.88856489    -0.58800
O815        O  0.27451624  0.34747497  0.90050110    -0.48900
O816        O  0.23536848  0.35850695  0.90596747    -0.55200
C817        C  0.23226425  0.32981492  0.87578355     0.84800
O818        O  0.27098137  0.35032084  0.86157451    -0.57100
O819        O  0.27124440  0.37451717  0.89570556    -0.60400
In820      In  0.36911365  0.41935912  0.99308886     1.36900
C821        C  0.34761328  0.40670953  0.96903760     0.77300
O822        O  0.35650258  0.40133989  0.01173065    -0.61100
O823        O  0.35376022  0.42845023  0.01669544    -0.52100
C824        C  0.39938783  0.41016137  0.00654939     0.70000
O825        O  0.39204911  0.40136267  0.99460382    -0.46900
C826        C  0.37915432  0.44680171  0.97472900     0.74700
O827        O  0.36118564  0.39852118  0.97352599    -0.58800
O828        O  0.36768943  0.44801626  0.98655789    -0.48900
O829        O  0.34534528  0.42095127  0.97691462    -0.55200
C830        C  0.35039367  0.41304476  0.02152342     0.84800
O831        O  0.39131643  0.42373612  0.01115095    -0.57100
O832        O  0.38568852  0.43184010  0.97298983    -0.60400
In833      In  0.01374978  0.37670861  0.89833811     1.36900
C834        C  0.03785224  0.35638883  0.88493028     0.77300
O835        O  0.03504521  0.39326810  0.90750067    -0.61100
O836        O  0.02351466  0.37551024  0.92589091    -0.52100
C837        C  0.99525365  0.40551185  0.89752178     0.70000
O838        O  0.00662786  0.40215587  0.88593361    -0.46900
C839        C  0.98905703  0.35619742  0.88678335     0.74700
O840        O  0.03350119  0.37060110  0.87757276    -0.58800
O841        O  0.99259601  0.35705768  0.90303703    -0.48900
O842        O  0.02987183  0.35296699  0.89898865    -0.55200
C843        C  0.03518387  0.38685591  0.92274540     0.84800
O844        O  0.99367107  0.39412248  0.90940155    -0.57100
O845        O  0.99767668  0.36636620  0.87706746    -0.60400
In846      In  0.12186555  0.25287978  0.84818053     1.36900
C847        C  0.10432584  0.22646538  0.86078207     0.77300
O848        O  0.10973322  0.26800426  0.86958744    -0.61100
O849        O  0.10312436  0.27504739  0.84338933    -0.52100
C850        C  0.15047500  0.27111980  0.85154045     0.70000
O851        O  0.14708940  0.25857557  0.86181183    -0.46900
C852        C  0.13337936  0.23478609  0.82119773     0.74700
O853        O  0.11737927  0.23262936  0.86889317    -0.58800
O854        O  0.12040218  0.24494536  0.81963291    -0.48900
O855        O  0.10033054  0.23408947  0.84669477    -0.55200
C856        C  0.10131906  0.27807202  0.85964151     0.84800
O857        O  0.13921164  0.27393327  0.83979884    -0.57100
O858        O  0.14019218  0.23442243  0.83625147    -0.60400
In859      In  0.89685381  0.26511304  0.83996789     1.36900
C860        C  0.91727000  0.28725278  0.85683662     0.77300
O861        O  0.90983109  0.24650717  0.85766531    -0.61100
O862        O  0.91457198  0.24349334  0.83037075    -0.52100
C863        C  0.86687471  0.24845150  0.84414914     0.70000
O864        O  0.87180033  0.26024690  0.85468298    -0.46900
C865        C  0.88778736  0.28686126  0.81451357     0.74700
O866        O  0.90338298  0.28149224  0.86368320    -0.58800
O867        O  0.89913058  0.27509381  0.81224037    -0.48900
O868        O  0.92020735  0.28187501  0.84151801    -0.55200
C869        C  0.91771478  0.23826294  0.84579726     0.84800
O870        O  0.87723293  0.24557162  0.83165348    -0.57100
O871        O  0.88097225  0.28703048  0.82953929    -0.60400
In872      In  0.00399834  0.14525027  0.90157552     1.36900
C873        C  0.98251431  0.16897175  0.88843812     0.77300
O874        O  0.98070913  0.13153642  0.91162036    -0.61100
O875        O  0.99681404  0.14454933  0.93019146    -0.52100
C876        C  0.01603503  0.11455851  0.89113154     0.70000
O877        O  0.00581296  0.12354770  0.88182556    -0.46900
C878        C  0.03333016  0.16315017  0.89890839     0.74700
O879        O  0.98622274  0.15526837  0.88002505    -0.58800
O880        O  0.02661884  0.15994590  0.91366529    -0.48900
O881        O  0.99008769  0.17039179  0.90299553    -0.55200
C882        C  0.98304703  0.13592579  0.92736071     0.84800
O883        O  0.01960532  0.12116003  0.90585275    -0.57100
O884        O  0.02509303  0.15701292  0.88603187    -0.60400
In885      In  0.84601662  0.39762368  0.74373479     1.36900
C886        C  0.85914395  0.42035970  0.72124442     0.77300
O887        O  0.83600778  0.38220781  0.72135755    -0.61100
O888        O  0.81802771  0.39865580  0.73472542    -0.52100
C889        C  0.85227290  0.36724355  0.75895683     0.70000
O890        O  0.86282562  0.37387853  0.74806731    -0.46900
C891        C  0.85167428  0.41662838  0.77210532     0.74700
O892        O  0.86717038  0.40637362  0.72487991    -0.58800
O893        O  0.83638650  0.41376148  0.76648893    -0.48900
O894        O  0.84500657  0.42242206  0.72934471    -0.55200
C895        C  0.82072284  0.38819723  0.72216205     0.84800
O896        O  0.83854989  0.37598079  0.76141365    -0.57100
O897        O  0.86362453  0.40955225  0.76328306    -0.60400
In898      In  0.90855783  0.51353048  0.63192640     1.36900
C899        C  0.89569258  0.53792250  0.65279267     0.77300
O900        O  0.89014795  0.49630760  0.64607326    -0.61100
O901        O  0.91716971  0.49105749  0.64913924    -0.52100
C902        C  0.90077125  0.49798439  0.60188487     0.70000
O903        O  0.89131897  0.50988790  0.60832383    -0.46900
C904        C  0.93509421  0.53288002  0.62123180     0.74700
O905        O  0.88771653  0.53309601  0.63907821    -0.58800
O906        O  0.93707952  0.52098313  0.63254894    -0.48900
O907        O  0.91004682  0.53038562  0.65537761    -0.55200
C908        C  0.90168153  0.48704092  0.65322196     0.84800
O909        O  0.91410810  0.49430309  0.61083382    -0.57100
O910        O  0.91985724  0.53418949  0.61518876    -0.60400
In911      In  0.90421785  0.50206538  0.86784464     1.36900
C912        C  0.89212451  0.47799706  0.84591806     0.77300
O913        O  0.88489963  0.52034099  0.85680402    -0.61100
O914        O  0.91162429  0.52584097  0.85213795    -0.52100
C915        C  0.89631199  0.51509897  0.89899466     0.70000
O916        O  0.88699582  0.50350977  0.89174984    -0.46900
C917        C  0.93297000  0.48476197  0.87557681     0.74700
O918        O  0.88395884  0.48191346  0.85976007    -0.58800
O919        O  0.93305931  0.49734720  0.86488377    -0.48900
O920        O  0.90595548  0.48646815  0.84353848    -0.55200
C921        C  0.89593103  0.53030472  0.84985512     0.84800
O922        O  0.90983674  0.51920744  0.89057464    -0.57100
O923        O  0.91842556  0.48180293  0.88268134    -0.60400
In924      In  0.86665242  0.62577296  0.75638603     1.36900
C925        C  0.87886882  0.60694597  0.78253204     0.77300
O926        O  0.85392200  0.64319041  0.77560754    -0.61100
O927        O  0.83801765  0.62428998  0.76272156    -0.52100
C928        C  0.87528605  0.65479974  0.73978048     0.70000
O929        O  0.88465587  0.64856477  0.75188542    -0.46900
C930        C  0.87452288  0.60323165  0.73129864     0.74700
O931        O  0.88728615  0.61983289  0.77656464    -0.58800
O932        O  0.85896757  0.60816894  0.73367745    -0.48900
O933        O  0.86436311  0.60418585  0.77530115    -0.55200
C934        C  0.83904801  0.63632106  0.77404907     0.84800
O935        O  0.86152730  0.64632818  0.73666247    -0.57100
O936        O  0.88548196  0.61003055  0.74149002    -0.60400
In937      In  0.12621829  0.26459738  0.34394824     1.36900
C938        C  0.10628923  0.28966002  0.35638210     0.77300
O939        O  0.14387738  0.28475799  0.33299109    -0.61100
O940        O  0.12579412  0.27262843  0.31548003    -0.52100
C941        C  0.15395297  0.24476153  0.34740955     0.70000
O942        O  0.15111702  0.25743785  0.35775749    -0.46900
C943        C  0.10525446  0.23996858  0.35590601     0.74700
O944        O  0.11993205  0.28487799  0.36450124    -0.58800
O945        O  0.10623659  0.24320396  0.33959799    -0.48900
O946        O  0.10323604  0.28160990  0.34225947    -0.55200
C947        C  0.13770004  0.28395951  0.31763526     0.84800
O948        O  0.14295800  0.24300841  0.33517104    -0.57100
O949        O  0.11511796  0.24913452  0.36546068    -0.60400
In950      In  0.01126394  0.15037236  0.40361990     1.36900
C951        C  0.03513342  0.16940373  0.38718536     0.77300
O952        O  0.99145640  0.16235759  0.38671498    -0.61100
O953        O  0.99082330  0.16922294  0.41368833    -0.52100
C954        C  0.99393178  0.12095285  0.39869042     0.70000
O955        O  0.00432953  0.12688239  0.38729859    -0.46900
C956        C  0.03196459  0.13981309  0.42899056     0.74700
O957        O  0.02896246  0.15556723  0.38059062    -0.58800
O958        O  0.02013461  0.15099447  0.43170633    -0.48900
O959        O  0.02902920  0.17328384  0.40200593    -0.55200
C960        C  0.98415323  0.17103227  0.39862410     0.84800
O961        O  0.99302869  0.12984106  0.41257112    -0.57100
O962        O  0.03260500  0.13392784  0.41356902    -0.60400
In963      In  0.89312657  0.25755526  0.34245949     1.36900
C964        C  0.91366127  0.23357352  0.35585830     0.77300
O965        O  0.87586660  0.23658422  0.33302777    -0.61100
O966        O  0.89333197  0.24802832  0.31455316    -0.52100
C967        C  0.86302246  0.27302782  0.34782157     0.70000
O968        O  0.86896469  0.26196502  0.35859479    -0.46900
C969        C  0.91412279  0.28431984  0.34811808     0.74700
O970        O  0.90130193  0.24002482  0.36474171    -0.58800
O971        O  0.91009849  0.27972695  0.33268301    -0.48900
O972        O  0.91530977  0.23962711  0.34061013    -0.55200
C973        C  0.88167044  0.23669552  0.31757562     0.84800
O974        O  0.87272410  0.27612075  0.33485493    -0.57100
O975        O  0.90707089  0.27545829  0.36005974    -0.60400
In976      In  0.00630005  0.37092429  0.40408724     1.36900
C977        C  0.98288190  0.34980834  0.39045051     0.77300
O978        O  0.02540924  0.35846124  0.38638639    -0.61100
O979        O  0.02881107  0.35442706  0.41375412    -0.52100
C980        C  0.02254921  0.40036413  0.39776505     0.70000
O981        O  0.01129247  0.39429444  0.38722160    -0.46900
C982        C  0.98491121  0.38133801  0.42924904     0.74700
O983        O  0.98708334  0.36377022  0.38265431    -0.58800
O984        O  0.99601067  0.36940324  0.43182297    -0.48900
O985        O  0.99109599  0.34688255  0.40442908    -0.55200
C986        C  0.03431802  0.35149615  0.39837518     0.84800
O987        O  0.02483836  0.39155560  0.41155061    -0.57100
O988        O  0.98552821  0.38825866  0.41429570    -0.60400
In989      In  0.10089255  0.50383411  0.35584404     1.36900
C990        C  0.11732139  0.47897904  0.33823154     0.77300
O991        O  0.08953600  0.48350794  0.37250450    -0.61100
O992        O  0.07308514  0.49455380  0.35296099    -0.52100
C993        C  0.10560323  0.52015699  0.38613072     0.70000
O994        O  0.11602525  0.50861654  0.38066946    -0.46900
C995        C  0.10634781  0.53021794  0.33412129     0.74700
O996        O  0.12454505  0.48695322  0.35081748    -0.58800
O997        O  0.09109975  0.52518363  0.33787356    -0.48900
O998        O  0.10202512  0.48389672  0.33487184    -0.55200
C999        C  0.07489058  0.48337435  0.36501897     0.84800
O1000       O  0.09289335  0.52311905  0.37609207    -0.57100
O1001       O  0.11831579  0.52165026  0.34137774    -0.60400
In1002     In  0.15651201  0.39328875  0.23780323     1.36900
C1003       C  0.14711756  0.41747338  0.21494614     0.77300
O1004       O  0.13541645  0.40316578  0.25463716    -0.61100
O1005       O  0.16149335  0.40829307  0.26283291    -0.52100
C1006       C  0.15014004  0.36167669  0.25024924     0.70000
O1007       O  0.14055027  0.36855609  0.23859257    -0.46900
C1008       C  0.18414660  0.38531381  0.21913005     0.74700
O1009       O  0.13821550  0.40365421  0.21693686    -0.58800
O1010       O  0.18528278  0.39476124  0.23274095    -0.48900
O1011       O  0.16024189  0.41873366  0.22482677    -0.55200
C1012       C  0.14534418  0.41013850  0.26582893     0.84800
O1013       O  0.16301980  0.37086267  0.25490919    -0.57100
O1014       O  0.16907313  0.37954580  0.21577566    -0.60400
In1015     In  0.15650382  0.62894486  0.25124186     1.36900
C1016       C  0.14623546  0.60504185  0.27387388     0.77300
O1017       O  0.13647313  0.61795389  0.23377421    -0.61100
O1018       O  0.16297554  0.61341763  0.22689168    -0.52100
C1019       C  0.14861597  0.65962112  0.23800514     0.70000
O1020       O  0.13939468  0.65269991  0.24988932    -0.46900
C1021       C  0.18373830  0.63856918  0.27003794     0.74700
O1022       O  0.13723426  0.61860485  0.27104481    -0.58800
O1023       O  0.18530681  0.62908079  0.25651899    -0.48900
O1024       O  0.16023176  0.60413009  0.26529779    -0.55200
C1025       C  0.14702699  0.61108045  0.22318695     0.84800
O1026       O  0.16182167  0.65092324  0.23346467    -0.57100
O1027       O  0.16839758  0.64361672  0.27322246    -0.60400
In1028     In  0.10931313  0.51862288  0.12845292     1.36900
C1029       C  0.12421199  0.54336413  0.14772464     0.77300
O1030       O  0.09732766  0.53862436  0.11112050    -0.61100
O1031       O  0.08125340  0.52725750  0.13066461    -0.52100
C1032       C  0.11758314  0.50239718  0.09884255     0.70000
O1033       O  0.12751489  0.51358406  0.10584233    -0.46900
C1034       C  0.11332550  0.49132727  0.14958862     0.74700
O1035       O  0.13155833  0.53724894  0.13423983    -0.58800
O1036       O  0.09843053  0.49645200  0.14474594    -0.48900
O1037       O  0.10963188  0.53667433  0.15115569    -0.55200
C1038       C  0.08263799  0.53831739  0.11848795     0.84800
O1039       O  0.10337191  0.50006209  0.10677395    -0.57100
O1040       O  0.12576301  0.50024096  0.14367215    -0.60400
In1041     In  0.26197384  0.66117779  0.38147020     1.36900
C1042       C  0.28651607  0.64766100  0.40154257     0.77300
O1043       O  0.28288888  0.67178262  0.36453310    -0.61100
O1044       O  0.26981102  0.68924857  0.38190713    -0.52100
C1045       C  0.24342405  0.65903945  0.35253942     0.70000
O1046       O  0.25524531  0.64794251  0.35589171    -0.46900
C1047       C  0.23601941  0.65369789  0.40278493     0.74700
O1048       O  0.28080816  0.63942465  0.38827472    -0.58800
O1049       O  0.24181435  0.66908723  0.40116715    -0.48900
O1050       O  0.27948254  0.66226448  0.40423411    -0.55200
C1051       C  0.28159992  0.68711087  0.37048805     0.84800
O1052       O  0.24156399  0.67085039  0.36390010    -0.57100
O1053       O  0.24351686  0.64241874  0.39337419    -0.60400
In1054     In  0.14724230  0.59697052  0.49190178     1.36900
C1055       C  0.16731066  0.61030218  0.46739881     0.77300
O1056       O  0.16034623  0.61528375  0.50990318    -0.61100
O1057       O  0.16617998  0.58822586  0.51255647    -0.52100
C1058       C  0.11822302  0.60031040  0.51016682     0.70000
O1059       O  0.12257981  0.61143091  0.49867991    -0.46900
C1060       C  0.13691563  0.57230614  0.47045707     0.74700
O1061       O  0.15473215  0.61899583  0.47374567    -0.58800
O1062       O  0.14790403  0.56938905  0.48252455    -0.48900
O1063       O  0.16945271  0.59537002  0.47390463    -0.55200
C1064       C  0.16882030  0.60366192  0.51789484     0.84800
O1065       O  0.12850452  0.58755921  0.51169063    -0.57100
O1066       O  0.13062772  0.58753011  0.47021890    -0.60400
In1067     In  0.25521427  0.65567061  0.61205234     1.36900
C1068       C  0.23092740  0.64486775  0.59027482     0.77300
O1069       O  0.23427491  0.66863117  0.62700326    -0.61100
O1070       O  0.25018310  0.68453818  0.61054379    -0.52100
C1071       C  0.26829910  0.64987567  0.64336146     0.70000
O1072       O  0.25635361  0.64036338  0.63697748    -0.46900
C1073       C  0.28200992  0.64398077  0.59367922     0.74700
O1074       O  0.23484089  0.63622014  0.60384747    -0.58800
O1075       O  0.27887867  0.66016208  0.59500876    -0.48900
O1076       O  0.23950193  0.65870743  0.58805548    -0.55200
C1077       C  0.23728460  0.68362816  0.62090384     0.84800
O1078       O  0.27330411  0.66220840  0.63362568    -0.57100
O1079       O  0.27158511  0.63427223  0.60188052    -0.60400
In1080     In  0.37068028  0.59870265  0.49925765     1.36900
C1081       C  0.35253939  0.61557837  0.52327102     0.77300
O1082       O  0.35790478  0.61650822  0.48034276    -0.61100
O1083       O  0.35273388  0.58945985  0.47744907    -0.52100
C1084       C  0.40072775  0.60300932  0.48275807     0.70000
O1085       O  0.39563353  0.61345056  0.49451964    -0.46900
C1086       C  0.37829168  0.57328661  0.52159195     0.74700
O1087       O  0.36597858  0.62223996  0.51638895    -0.58800
O1088       O  0.36702658  0.57122458  0.50961212    -0.48900
O1089       O  0.34836946  0.60079955  0.51739873    -0.55200
C1090       C  0.35012175  0.60476665  0.47182787     0.84800
O1091       O  0.39071662  0.59020816  0.48009076    -0.57100
O1092       O  0.38626032  0.58765848  0.52103006    -0.60400
In1093     In  0.66841988  0.12891675  0.74750828     1.36900
C1094       C  0.65709870  0.10876968  0.77306729     0.77300
O1095       O  0.65027523  0.11446248  0.73066196    -0.61100
O1096       O  0.67738539  0.11099443  0.72582829    -0.52100
C1097       C  0.66022469  0.15811141  0.73130388     0.70000
O1098       O  0.65085838  0.15196434  0.74347269    -0.46900
C1099       C  0.69430331  0.14150313  0.76622875     0.74700
O1100       O  0.64781516  0.12110084  0.76720514    -0.58800
O1101       O  0.69685284  0.12947325  0.75513454    -0.48900
O1102       O  0.67167559  0.10704408  0.76572110    -0.55200
C1103       C  0.66188548  0.10692691  0.72180003     0.84800
O1104       O  0.67352112  0.14916316  0.72756307    -0.57100
O1105       O  0.67891921  0.14720249  0.76693892    -0.60400
In1106     In  0.61169490  0.00972901  0.85588665     1.36900
C1107       C  0.62491248  0.98706498  0.83328580     0.77300
O1108       O  0.60039699  0.98745459  0.86993976    -0.61100
O1109       O  0.58315462  0.00258247  0.85424875    -0.52100
C1110       C  0.62010330  0.01977085  0.88786795     0.70000
O1111       O  0.62984235  0.00997608  0.87886880    -0.46900
C1112       C  0.61702099  0.03917004  0.83847232     0.74700
O1113       O  0.63335838  0.99185666  0.84667346    -0.58800
O1114       O  0.60179384  0.03359462  0.84141228    -0.48900
O1115       O  0.61030017  0.99428066  0.83150359    -0.55200
C1116       C  0.58520631  0.98939402  0.86398812     0.84800
O1117       O  0.60609683  0.02421403  0.88044167    -0.57100
O1118       O  0.62897232  0.02992961  0.84485408    -0.60400
In1119     In  0.67410719  0.89771309  0.74045147     1.36900
C1120       C  0.65950548  0.91684272  0.71563191     0.77300
O1121       O  0.65622972  0.91189551  0.75800776    -0.61100
O1122       O  0.68334953  0.91630667  0.76167756    -0.52100
C1123       C  0.66900151  0.86887815  0.75859854     0.70000
O1124       O  0.65924996  0.87282645  0.74578346    -0.46900
C1125       C  0.70040545  0.88716617  0.72073924     0.74700
O1126       O  0.65115875  0.90462575  0.72299745    -0.58800
O1127       O  0.70194546  0.89951165  0.73167013    -0.48900
O1128       O  0.67492782  0.91879975  0.72091376    -0.55200
C1129       C  0.66794394  0.91974031  0.76651221     0.84800
O1130       O  0.68121063  0.87950935  0.76155503    -0.57100
O1131       O  0.68569091  0.87977516  0.72066841    -0.60400
In1132     In  0.60519290  0.01443298  0.63586734     1.36900
C1133       C  0.61794905  0.03867106  0.65688254     0.77300
O1134       O  0.59172498  0.03465589  0.62034672    -0.61100
O1135       O  0.57646469  0.01989489  0.63828013    -0.52100
C1136       C  0.61334019  0.00132342  0.60489904     0.70000
O1137       O  0.62230133  0.01325846  0.61198204    -0.46900
C1138       C  0.61255112  0.98696121  0.65541941     0.74700
O1139       O  0.62603211  0.03399512  0.64324865    -0.58800
O1140       O  0.59698483  0.99153526  0.65255683    -0.48900
O1141       O  0.60377806  0.03085760  0.65948638    -0.55200
C1142       C  0.57702870  0.03216778  0.62725684     0.84800
O1143       O  0.60024080  0.99650856  0.61362769    -0.57100
O1144       O  0.62388274  0.99628000  0.64805680    -0.60400
In1145     In  0.90736490  0.02090450  0.36107266     1.36900
C1146       C  0.89184215  0.04245912  0.33907083     0.77300
O1147       O  0.91896276  0.04298190  0.37593377    -0.61100
O1148       O  0.93516002  0.02962704  0.35775447    -0.52100
C1149       C  0.90071687  0.00690728  0.39186186     0.70000
O1150       O  0.89056164  0.01785196  0.38484024    -0.46900
C1151       C  0.90233339  0.99197898  0.34297378     0.74700
O1152       O  0.88548574  0.03941429  0.35403945    -0.58800
O1153       O  0.91739285  0.99846231  0.34485720    -0.48900
O1154       O  0.90563901  0.03429638  0.33570647    -0.55200
C1155       C  0.93358576  0.04205780  0.36851489     0.84800
O1156       O  0.91443491  0.00375653  0.38331060    -0.57100
O1157       O  0.89031325  0.00018876  0.35058348    -0.60400
In1158     In  0.85991701  0.12863349  0.23546314     1.36900
C1159       C  0.87259974  0.11145641  0.20843624     0.77300
O1160       O  0.87927231  0.11294456  0.24995242    -0.61100
O1161       O  0.85287138  0.11064778  0.25790934    -0.52100
C1162       C  0.86762286  0.15847895  0.25104617     0.70000
O1163       O  0.87628839  0.15274576  0.23821755    -0.46900
C1164       C  0.83124988  0.13750140  0.21844745     0.74700
O1165       O  0.88133668  0.12332736  0.21588636    -0.58800
O1166       O  0.83121614  0.12558314  0.22990607    -0.48900
O1167       O  0.85781151  0.10857907  0.21491154    -0.55200
C1168       C  0.86848898  0.10588730  0.26010301     0.84800
O1169       O  0.85509027  0.14890953  0.25569481    -0.57100
O1170       O  0.84562282  0.14528619  0.21666087    -0.60400
In1171     In  0.84640707  0.90200179  0.25608533     1.36900
C1172       C  0.85968773  0.92033239  0.28218639     0.77300
O1173       O  0.86363715  0.91823770  0.23958372    -0.61100
O1174       O  0.83654636  0.91950624  0.23421198    -0.52100
C1175       C  0.85396375  0.87212845  0.24015746     0.70000
O1176       O  0.86376699  0.87853023  0.25184655    -0.46900
C1177       C  0.82023412  0.89086697  0.27548976     0.74700
O1178       O  0.86858923  0.90896747  0.27418808    -0.58800
O1179       O  0.81810403  0.90271063  0.26412965    -0.48900
O1180       O  0.84433441  0.92220053  0.27669050    -0.55200
C1181       C  0.85171511  0.92463965  0.23027469     0.84800
O1182       O  0.84070776  0.88119213  0.23666913    -0.57100
O1183       O  0.83533755  0.88442902  0.27598948    -0.60400
In1184     In  0.90644744  0.00558878  0.13171055     1.36900
C1185       C  0.89345012  0.98552668  0.15673129     0.77300
O1186       O  0.91434938  0.98290194  0.11551026    -0.61100
O1187       O  0.93403481  0.99586805  0.13026342    -0.52100
C1188       C  0.89661978  0.01827756  0.10127389     0.70000
O1189       O  0.88672709  0.00845355  0.11013748    -0.46900
C1190       C  0.90618207  0.03570853  0.14858056     0.74700
O1191       O  0.88440438  0.98961659  0.14350015    -0.58800
O1192       O  0.92028236  0.02779291  0.14545812    -0.48900
O1193       O  0.90861581  0.99175300  0.15679326    -0.55200
C1194       C  0.93017054  0.98356716  0.11991701     0.84800
O1195       O  0.91136837  0.02116199  0.10801325    -0.57100
O1196       O  0.89268138  0.02816689  0.14301284    -0.60400
In1197     In  0.75429262  0.85361150  0.39018575     1.36900
C1198       C  0.73416963  0.87190186  0.41162542     0.77300
O1199       O  0.73102976  0.84313687  0.37665287    -0.61100
O1200       O  0.74483956  0.82569123  0.39315628    -0.52100
C1201       C  0.76869698  0.85794940  0.35910108     0.70000
O1202       O  0.75777370  0.86869699  0.36520091    -0.46900
C1203       C  0.78363624  0.85877927  0.40769219     0.74700
O1204       O  0.73713163  0.87682908  0.39611053    -0.58800
O1205       O  0.77633361  0.84396150  0.40724373    -0.48900
O1206       O  0.74149313  0.85782309  0.41582389    -0.55200
C1207       C  0.73197397  0.82804245  0.38304891     0.84800
O1208       O  0.77149052  0.84482415  0.36864472    -0.57100
O1209       O  0.77599634  0.87044551  0.39898752    -0.60400
In1210     In  0.64472934  0.90906919  0.50973053     1.36900
C1211       C  0.66274486  0.89631548  0.53622039     0.77300
O1212       O  0.66162686  0.89064225  0.49579981    -0.61100
O1213       O  0.66450595  0.91751124  0.48930646    -0.52100
C1214       C  0.61728814  0.90168383  0.49003125     0.70000
O1215       O  0.62119949  0.89248248  0.50322390    -0.46900
C1216       C  0.63114094  0.93518682  0.52763908     0.74700
O1217       O  0.65080692  0.88751629  0.52886840    -0.58800
O1218       O  0.64380178  0.93755754  0.51725786    -0.48900
O1219       O  0.66476953  0.91154985  0.53037955    -0.55200
C1220       C  0.66964490  0.90197233  0.48701714     0.84800
O1221       O  0.62753885  0.91422446  0.48713443    -0.57100
O1222       O  0.62541979  0.91977051  0.52817745    -0.60400
In1223     In  0.87759478  0.91546174  0.49084057     1.36900
C1224       C  0.85745222  0.90182262  0.46635300     0.77300
O1225       O  0.86334207  0.89765603  0.50796066    -0.61100
O1226       O  0.85941252  0.92483404  0.51220379    -0.52100
C1227       C  0.90666890  0.90974221  0.50858094     0.70000
O1228       O  0.90178326  0.89960583  0.49639337    -0.46900
C1229       C  0.88885343  0.94063650  0.47045615     0.74700
O1230       O  0.86980086  0.89313808  0.47308676    -0.58800
O1231       O  0.87696074  0.94324457  0.48165906    -0.48900
O1232       O  0.85576609  0.91710383  0.47215978    -0.55200
C1233       C  0.85563438  0.90934749  0.51657477     0.84800
O1234       O  0.89677237  0.92261814  0.51121969    -0.57100
O1235       O  0.89523097  0.92547187  0.47041235    -0.60400
In1236     In  0.76953989  0.85061489  0.60768677     1.36900
C1237       C  0.79158650  0.86411221  0.58481434     0.77300
O1238       O  0.79124877  0.84182001  0.62441672    -0.61100
O1239       O  0.77878138  0.82294826  0.60797218    -0.52100
C1240       C  0.75486006  0.85563281  0.63837110     0.70000
O1241       O  0.76528257  0.86677210  0.63192662    -0.46900
C1242       C  0.74031458  0.85509131  0.59001727     0.74700
O1243       O  0.78681356  0.87262132  0.59821109    -0.58800
O1244       O  0.74726636  0.84017991  0.59138091    -0.48900
O1245       O  0.78495452  0.84914045  0.58341228    -0.55200
C1246       C  0.79050181  0.82621245  0.61921923     0.84800
O1247       O  0.75241875  0.84220514  0.62910317    -0.57100
O1248       O  0.74858335  0.86728886  0.59737876    -0.60400
C1249       C  0.80402545  0.87062856  0.57161531    -0.05500
C1250       C  0.81149863  0.85861287  0.55997399    -0.05500
C1251       C  0.82299279  0.86406205  0.54707882    -0.23600
C1252       C  0.82718408  0.88168644  0.54544044     0.18600
C1253       C  0.81978953  0.89406022  0.55692186     0.15800
C1254       C  0.80827845  0.88841582  0.57011480    -0.18700
C1255       C  0.82405851  0.91176003  0.55486021    -0.20500
C1256       C  0.83563377  0.91702556  0.54166371    -0.13000
C1257       C  0.84313151  0.90463029  0.53044814     0.03600
C1258       C  0.83871517  0.88702405  0.53242949    -0.25200
H1259       H  0.80849390  0.84486472  0.56087319     0.08700
H1260       H  0.82858202  0.85445395  0.53833318     0.12300
H1261       H  0.80248694  0.89779222  0.57897328     0.12200
H1262       H  0.81848268  0.92149848  0.56345509     0.12000
H1263       H  0.83882090  0.93068893  0.54032071     0.12500
H1264       H  0.84427851  0.87731719  0.52376666     0.14500
C1265       C  0.67423310  0.88950018  0.55004473    -0.05500
C1266       C  0.68087376  0.90108581  0.56259514    -0.05500
C1267       C  0.69409478  0.89593915  0.57393608    -0.23600
C1268       C  0.70124860  0.87924095  0.57259263     0.18600
C1269       C  0.69431243  0.86719439  0.56043780     0.15800
C1270       C  0.68056389  0.87232995  0.54938359    -0.18700
C1271       C  0.70186267  0.85058854  0.55902393    -0.20500
C1272       C  0.71656609  0.84627584  0.56901937    -0.13000
C1273       C  0.72386420  0.85849787  0.58058635     0.03600
C1274       C  0.71578564  0.87475519  0.58264260    -0.25200
H1275       H  0.67616163  0.91435495  0.56326094     0.08700
H1276       H  0.69924605  0.90528390  0.58324160     0.12300
H1277       H  0.67565101  0.86342392  0.53952196     0.12200
H1278       H  0.69672869  0.84114156  0.54981774     0.12000
H1279       H  0.72253073  0.83362603  0.56731757     0.12500
H1280       H  0.72118815  0.88422639  0.59168426     0.14500
C1281       C  0.79945066  0.86274079  0.41803257    -0.05500
C1282       C  0.80652970  0.85060545  0.42977566    -0.05500
C1283       C  0.82025105  0.85536072  0.44092923    -0.23600
C1284       C  0.82699226  0.87236807  0.44060385     0.18600
C1285       C  0.82018523  0.88446178  0.42846202     0.15800
C1286       C  0.80672781  0.87949901  0.41713783    -0.18700
C1287       C  0.82640549  0.90158888  0.42830605    -0.20500
C1288       C  0.83882538  0.90691646  0.44046681    -0.13000
C1289       C  0.84563007  0.89513952  0.45270787     0.03600
C1290       C  0.83994337  0.87772993  0.45253710    -0.25200
H1291       H  0.80112701  0.83762116  0.43069012     0.08700
H1292       H  0.82525247  0.84588678  0.45014207     0.12300
H1293       H  0.80141864  0.88898677  0.40809457     0.12200
H1294       H  0.82128729  0.91101840  0.41910803     0.12000
H1295       H  0.84304168  0.92037960  0.44042083     0.12500
H1296       H  0.84496462  0.86865905  0.46215464     0.14500
C1297       C  0.72289494  0.88142603  0.42406965    -0.05500
C1298       C  0.71384637  0.89655725  0.41919074    -0.05500
C1299       C  0.70236513  0.90463849  0.43094060    -0.23600
C1300       C  0.69968714  0.89764243  0.44770371     0.18600
C1301       C  0.70918016  0.88269857  0.45276366     0.15800
C1302       C  0.72072245  0.87483659  0.44103472    -0.18700
C1303       C  0.70659301  0.87542107  0.46930193    -0.20500
C1304       C  0.69410649  0.88230903  0.48047271    -0.13000
C1305       C  0.68413581  0.89678860  0.47550926     0.03600
C1306       C  0.68730574  0.90481551  0.45928327    -0.25200
H1307       H  0.71540211  0.90193575  0.40620956     0.08700
H1308       H  0.69529029  0.91611416  0.42677582     0.12300
H1309       H  0.72769741  0.86322041  0.44501961     0.12200
H1310       H  0.71385656  0.86403852  0.47340513     0.12000
H1311       H  0.69198094  0.87606029  0.49298887     0.12500
H1312       H  0.67957920  0.91595586  0.45534919     0.14500
C1313       C  0.80676950  0.88544574  0.28815678    -0.05500
C1314       C  0.79168011  0.89537856  0.29092018    -0.05500
C1315       C  0.78047858  0.89148420  0.30485860    -0.23600
C1316       C  0.78426544  0.87763881  0.31624192     0.18600
C1317       C  0.79906777  0.86721790  0.31303452     0.15800
C1318       C  0.81008819  0.87111014  0.29902476    -0.18700
C1319       C  0.80303099  0.85339859  0.32424952    -0.20500
C1320       C  0.79271218  0.85016794  0.33884661    -0.13000
C1321       C  0.77825679  0.86070638  0.34257444     0.03600
C1322       C  0.77390445  0.87432037  0.33105583    -0.25200
H1323       H  0.78891146  0.90654100  0.28274626     0.08700
H1324       H  0.76916409  0.89958766  0.30703112     0.12300
H1325       H  0.82166293  0.86332171  0.29699771     0.12200
H1326       H  0.81433271  0.84530845  0.32194478     0.12000
H1327       H  0.79637809  0.83965780  0.34753245     0.12500
H1328       H  0.76277859  0.88251433  0.33382118     0.14500
C1329       C  0.88741668  0.97428177  0.17120432    -0.05500
C1330       C  0.89980443  0.96854880  0.18343522    -0.05500
C1331       C  0.89500939  0.95804081  0.19739108    -0.23600
C1332       C  0.87766364  0.95304976  0.19953760     0.18600
C1333       C  0.86488512  0.95876820  0.18753437     0.15800
C1334       C  0.86986268  0.96934707  0.17328142    -0.18700
C1335       C  0.84747714  0.95370047  0.19009200    -0.20500
C1336       C  0.84293223  0.94285889  0.20417376    -0.13000
C1337       C  0.85573532  0.93689815  0.21586828     0.03600
C1338       C  0.87302949  0.94226304  0.21349525    -0.25200
H1339       H  0.91338259  0.97211767  0.18218051     0.08700
H1340       H  0.90493191  0.95377124  0.20651571     0.12300
H1341       H  0.86017726  0.97377930  0.16397292     0.12200
H1342       H  0.83741686  0.95798871  0.18113371     0.12000
H1343       H  0.82949867  0.93892959  0.20576341     0.12500
H1344       H  0.88304906  0.93786585  0.22246642     0.14500
C1345       C  0.87871034  0.10132272  0.19339058    -0.05500
C1346       C  0.86666044  0.09709825  0.18027214    -0.05500
C1347       C  0.87068964  0.08477251  0.16758315    -0.23600
C1348       C  0.88667634  0.07610926  0.16812593     0.18600
C1349       C  0.89929682  0.08079353  0.18078226     0.15800
C1350       C  0.89532884  0.09371339  0.19323103    -0.18700
C1351       C  0.91513710  0.07168289  0.18135727    -0.20500
C1352       C  0.91796377  0.05744841  0.17020224    -0.13000
C1353       C  0.90500520  0.05224544  0.15831836     0.03600
C1354       C  0.88971798  0.06207748  0.15691079    -0.25200
H1355       H  0.85381746  0.10290498  0.18025791     0.08700
H1356       H  0.86093392  0.08135783  0.15789978     0.12300
H1357       H  0.90456149  0.09682483  0.20352974     0.12200
H1358       H  0.92501266  0.07508687  0.19091993     0.12000
H1359       H  0.92986701  0.05002751  0.17143878     0.12500
H1360       H  0.87971973  0.05823616  0.14762705     0.14500
C1361       C  0.89671349  0.99787619  0.40842675    -0.05500
C1362       C  0.88079988  0.00053796  0.41704726    -0.05500
C1363       C  0.87648270  0.99071586  0.43184123    -0.23600
C1364       C  0.88797477  0.97799014  0.43815460     0.18600
C1365       C  0.90417532  0.97555803  0.42975110     0.15800
C1366       C  0.90847651  0.98558220  0.41509233    -0.18700
C1367       C  0.91560272  0.96269496  0.43573476    -0.20500
C1368       C  0.91076113  0.95182710  0.44946883    -0.13000
C1369       C  0.89455786  0.95380417  0.45768258     0.03600
C1370       C  0.88333945  0.96721288  0.45227236    -0.25200
H1371       H  0.87152394  0.00993880  0.41211940     0.08700
H1372       H  0.86400728  0.99277763  0.43807422     0.12300
H1373       H  0.92077628  0.98339061  0.40853602     0.12200
H1374       H  0.92806527  0.96068931  0.42945426     0.12000
H1375       H  0.91958523  0.94158052  0.45345369     0.12500
H1376       H  0.87072377  0.96866544  0.45841488     0.14500
C1377       C  0.89856329  0.97640346  0.33230322    -0.05500
C1378       C  0.91052766  0.97016876  0.31993273    -0.05500
C1379       C  0.90581868  0.95676487  0.30840897    -0.23600
C1380       C  0.88905799  0.94949528  0.30906190     0.18600
C1381       C  0.87719361  0.95535661  0.32190537     0.15800
C1382       C  0.88209010  0.96858191  0.33351071    -0.18700
C1383       C  0.86031466  0.94849805  0.32243113    -0.20500
C1384       C  0.85490861  0.93659997  0.30976643    -0.13000
C1385       C  0.86641073  0.93101645  0.29666971     0.03600
C1386       C  0.88366129  0.93706306  0.29666592    -0.25200
H1387       H  0.92327339  0.97606657  0.31876517     0.08700
H1388       H  0.91508503  0.95246783  0.29864638     0.12300
H1389       H  0.87278377  0.97326559  0.34307028     0.12200
H1390       H  0.85109525  0.95282801  0.33222762     0.12000
H1391       H  0.84158067  0.93198498  0.30998035     0.12500
H1392       H  0.89250498  0.93289540  0.28645083     0.14500
C1393       C  0.88427856  0.05466480  0.32624971    -0.05500
C1394       C  0.86854122  0.06341574  0.32933068    -0.05500
C1395       C  0.86187733  0.07501570  0.31684258    -0.23600
C1396       C  0.87092342  0.07806880  0.30116789     0.18600
C1397       C  0.88682603  0.06934151  0.29815794     0.15800
C1398       C  0.89329573  0.05772812  0.31060054    -0.18700
C1399       C  0.89616439  0.07241586  0.28278224    -0.20500
C1400       C  0.88993806  0.08420618  0.27049488    -0.13000
C1401       C  0.87415556  0.09299775  0.27320371     0.03600
C1402       C  0.86454156  0.08976671  0.28851568    -0.25200
H1403       H  0.86141441  0.06128151  0.34134601     0.08700
H1404       H  0.84971334  0.08162966  0.31946094     0.12300
H1405       H  0.90551624  0.05114717  0.30809869     0.12200
H1406       H  0.90837220  0.06581502  0.28032129     0.12000
H1407       H  0.89751442  0.08644336  0.25876295     0.12500
H1408       H  0.85242307  0.09661459  0.29074132     0.14500
C1409       C  0.62387531  0.94880671  0.53917824    -0.05500
C1410       C  0.60766616  0.94584929  0.54711183    -0.05500
C1411       C  0.60180363  0.95657308  0.56056025    -0.23600
C1412       C  0.61213881  0.97037931  0.56648176     0.18600
C1413       C  0.62803649  0.97417639  0.55800416     0.15800
C1414       C  0.63373542  0.96345987  0.54416760    -0.18700
C1415       C  0.63831330  0.98802947  0.56417831    -0.20500
C1416       C  0.63330681  0.99736794  0.57912547    -0.13000
C1417       C  0.61790112  0.99306916  0.58802665     0.03600
C1418       C  0.60715079  0.97988735  0.58127909    -0.25200
H1419       H  0.59977629  0.93475304  0.54337256     0.08700
H1420       H  0.58952127  0.95360606  0.56682126     0.12300
H1421       H  0.64627613  0.96580984  0.53815392     0.12200
H1422       H  0.65048275  0.99124737  0.55782391     0.12000
H1423       H  0.64173474  0.00758461  0.58401867     0.12500
H1424       H  0.59517930  0.97652556  0.58795143     0.14500
C1425       C  0.71422314  0.88238368  0.70815575    -0.05500
C1426       C  0.72757955  0.89422684  0.70416590    -0.05500
C1427       C  0.73905599  0.89095220  0.69033952    -0.23600
C1428       C  0.73741529  0.87572897  0.68031334     0.18600
C1429       C  0.72459185  0.86331175  0.68486908     0.15800
C1430       C  0.71310056  0.86671669  0.69871391    -0.18700
C1431       C  0.72300016  0.84799683  0.67506202    -0.20500
C1432       C  0.73339410  0.84536518  0.66037160    -0.13000
C1433       C  0.74557550  0.85799216  0.65513348     0.03600
C1434       C  0.74787748  0.87298587  0.66545264    -0.25200
H1435       H  0.72866191  0.90640054  0.71123346     0.08700
H1436       H  0.74886877  0.90058408  0.68715483     0.12300
H1437       H  0.70288584  0.85743968  0.70174174     0.12200
H1438       H  0.71336600  0.83825665  0.67845997     0.12000
H1439       H  0.73147799  0.83360943  0.65276776     0.12500
H1440       H  0.75734480  0.88274013  0.66161602     0.14500
C1441       C  0.65229961  0.92837565  0.70200348    -0.05500
C1442       C  0.66390482  0.93636647  0.69032352    -0.05500
C1443       C  0.65810664  0.94878252  0.67845187    -0.23600
C1444       C  0.64058165  0.95362950  0.67814286     0.18600
C1445       C  0.62859183  0.94550015  0.68953766     0.15800
C1446       C  0.63452072  0.93272893  0.70136606    -0.18700
C1447       C  0.61104529  0.95064329  0.68910004    -0.20500
C1448       C  0.60556417  0.96386432  0.67770418    -0.13000
C1449       C  0.61756913  0.97215209  0.66664370     0.03600
C1450       C  0.63500649  0.96678213  0.66683563    -0.25200
H1451       H  0.67762784  0.93316771  0.69055692     0.08700
H1452       H  0.66742656  0.95486706  0.66974926     0.12300
H1453       H  0.62552146  0.92674220  0.71047612     0.12200
H1454       H  0.60162212  0.94461392  0.69772587     0.12000
H1455       H  0.59205824  0.96784943  0.67779529     0.12500
H1456       H  0.64439190  0.97305308  0.65832248     0.14500
C1457       C  0.63098190  0.97379127  0.82069080    -0.05500
C1458       C  0.61868342  0.96624975  0.80937947    -0.05500
C1459       C  0.62361880  0.95383173  0.79712876    -0.23600
C1460       C  0.64103648  0.94883586  0.79570857     0.18600
C1461       C  0.65368170  0.95618919  0.80696241     0.15800
C1462       C  0.64852757  0.96856052  0.81961323    -0.18700
C1463       C  0.67118145  0.95117162  0.80506198    -0.20500
C1464       C  0.67604525  0.93927379  0.79195830    -0.13000
C1465       C  0.66343755  0.93205472  0.78073857     0.03600
C1466       C  0.64594844  0.93678717  0.78292554    -0.25200
H1467       H  0.60509664  0.96991858  0.81003998     0.08700
H1468       H  0.61379155  0.94827530  0.78858352     0.12300
H1469       H  0.65812333  0.97433449  0.82828782     0.12200
H1470       H  0.68112378  0.95661469  0.81354436     0.12000
H1471       H  0.68960532  0.93574256  0.79057907     0.12500
H1472       H  0.63606429  0.93134127  0.77435895     0.14500
C1473       C  0.65718450  0.09416221  0.70812978    -0.05500
C1474       C  0.66971994  0.08622387  0.69741051    -0.05500
C1475       C  0.66468318  0.07394242  0.68476116    -0.23600
C1476       C  0.64706883  0.06937448  0.68277862     0.18600
C1477       C  0.63450795  0.07731124  0.69366946     0.15800
C1478       C  0.63961747  0.08961786  0.70609993    -0.18700
C1479       C  0.61696291  0.07275510  0.69212873    -0.20500
C1480       C  0.61181482  0.06028673  0.68000218    -0.13000
C1481       C  0.62405349  0.05226423  0.66902572     0.03600
C1482       C  0.64171848  0.05694299  0.67031310    -0.25200
H1483       H  0.68335419  0.08950325  0.69881512     0.08700
H1484       H  0.67454500  0.06796611  0.67661158     0.12300
H1485       H  0.62981163  0.09555042  0.71437601     0.12200
H1486       H  0.60721211  0.07873840  0.70041663     0.12000
H1487       H  0.59814484  0.05692353  0.67918363     0.12500
H1488       H  0.65124121  0.05067753  0.66196451     0.14500
C1489       C  0.65182945  0.09694143  0.78731030    -0.05500
C1490       C  0.66470841  0.08669458  0.79529274    -0.05500
C1491       C  0.66033408  0.07429147  0.80774542    -0.23600
C1492       C  0.64293122  0.07169120  0.81233254     0.18600
C1493       C  0.62977417  0.08213102  0.80479849     0.15800
C1494       C  0.63433993  0.09493376  0.79240905    -0.18700
C1495       C  0.61232160  0.07907759  0.80938526    -0.20500
C1496       C  0.60798319  0.06538422  0.82073944    -0.13000
C1497       C  0.62106169  0.05474670  0.82785210     0.03600
C1498       C  0.63852201  0.05833184  0.82389252    -0.25200
H1499       H  0.67827133  0.08809788  0.79171250     0.08700
H1500       H  0.67054918  0.06640771  0.81345729     0.12300
H1501       H  0.62432346  0.10275476  0.78627489     0.12200
H1502       H  0.60202007  0.08694115  0.80382580     0.12000
H1503       H  0.59442774  0.06289696  0.82367130     0.12500
H1504       H  0.64875975  0.05024649  0.82928908     0.14500
C1505       C  0.29633021  0.63655139  0.58308963    -0.05500
C1506       C  0.29852640  0.61837553  0.58256306    -0.05500
C1507       C  0.31076851  0.61081060  0.57148246    -0.23600
C1508       C  0.32105387  0.62126165  0.56065132     0.18600
C1509       C  0.31960432  0.63958953  0.56158508     0.15800
C1510       C  0.30723839  0.64714774  0.57285361    -0.18700
C1511       C  0.33017990  0.64994717  0.55081179    -0.20500
C1512       C  0.34150330  0.64220871  0.53873215    -0.13000
C1513       C  0.34226360  0.62402621  0.53716322     0.03600
C1514       C  0.33232043  0.61364243  0.54847379    -0.25200
H1515       H  0.29043607  0.60991081  0.59043096     0.08700
H1516       H  0.31186102  0.59673568  0.57105035     0.12300
H1517       H  0.30574421  0.66117965  0.57324671     0.12200
H1518       H  0.32938259  0.66402364  0.55142756     0.12000
H1519       H  0.34915338  0.65040936  0.53017468     0.12500
H1520       H  0.33306518  0.59955755  0.54751752     0.14500
C1521       C  0.21749655  0.63949549  0.57767135    -0.05500
C1522       C  0.20786787  0.65230738  0.56888388    -0.05500
C1523       C  0.19602784  0.64769420  0.55585082    -0.23600
C1524       C  0.19395736  0.63019817  0.55109659     0.18600
C1525       C  0.20359607  0.61716984  0.55984553     0.15800
C1526       C  0.21510816  0.62188798  0.57335345    -0.18700
C1527       C  0.20181190  0.59972894  0.55463908    -0.20500
C1528       C  0.19055222  0.59524448  0.54093594    -0.13000
C1529       C  0.18081881  0.60811486  0.53233568     0.03600
C1530       C  0.18259869  0.62558003  0.53753236    -0.25200
H1531       H  0.20958953  0.66595243  0.57207100     0.08700
H1532       H  0.18876104  0.65782999  0.54925368     0.12300
H1533       H  0.22271919  0.61200645  0.57996158     0.12200
H1534       H  0.20920078  0.58958452  0.56107843     0.12000
H1535       H  0.18944392  0.58172263  0.53707810     0.12500
H1536       H  0.17523221  0.63564985  0.53092870     0.14500
C1537       C  0.22176028  0.64898137  0.41487352    -0.05500
C1538       C  0.21377327  0.66156747  0.42551982    -0.05500
C1539       C  0.20078457  0.65678414  0.43743845    -0.23600
C1540       C  0.19564044  0.63931205  0.43896994     0.18600
C1541       C  0.20351659  0.62663477  0.42812597     0.15800
C1542       C  0.21637797  0.63155258  0.41613106    -0.18700
C1543       C  0.19870779  0.60913847  0.42970143    -0.20500
C1544       C  0.18660864  0.60412143  0.44226775    -0.13000
C1545       C  0.17883622  0.61649875  0.45330943     0.03600
C1546       C  0.18311757  0.63418393  0.45139849    -0.25200
H1547       H  0.21769896  0.67508315  0.42476006     0.08700
H1548       H  0.19494874  0.66670493  0.44562385     0.12300
H1549       H  0.22243948  0.62170628  0.40799592     0.12200
H1550       H  0.20457952  0.59927073  0.42146756     0.12000
H1551       H  0.18340562  0.59043502  0.44347211     0.12500
H1552       H  0.17727175  0.64376683  0.45998731     0.14500
C1553       C  0.30052495  0.64140349  0.41321881    -0.05500
C1554       C  0.31101903  0.65385426  0.42161831    -0.05500
C1555       C  0.32350209  0.64887878  0.43383150    -0.23600
C1556       C  0.32551105  0.63132634  0.43823242     0.18600
C1557       C  0.31525123  0.61853226  0.42977863     0.15800
C1558       C  0.30290863  0.62363751  0.41706396    -0.18700
C1559       C  0.31723317  0.60099270  0.43462798    -0.20500
C1560       C  0.32884333  0.59631225  0.44803614    -0.13000
C1561       C  0.33873798  0.60907289  0.45673246     0.03600
C1562       C  0.33724421  0.62651082  0.45140851    -0.25200
H1563       H  0.30945814  0.66758626  0.41880843     0.08700
H1564       H  0.33128047  0.65882988  0.44017386     0.12300
H1565       H  0.29473820  0.61397297  0.41077130     0.12200
H1566       H  0.30954207  0.59095418  0.42833059     0.12000
H1567       H  0.32982867  0.58277696  0.45183365     0.12500
H1568       H  0.34486223  0.63649922  0.45790364     0.14500
C1569       C  0.19833697  0.64268469  0.28199597    -0.05500
C1570       C  0.21407369  0.63343045  0.28112781    -0.05500
C1571       C  0.22666527  0.63532094  0.29428717    -0.23600
C1572       C  0.22370278  0.64651663  0.30850883     0.18600
C1573       C  0.20831631  0.65659815  0.30887263     0.15800
C1574       C  0.19581914  0.65466565  0.29564428    -0.18700
C1575       C  0.20530023  0.66798479  0.32282485    -0.20500
C1576       C  0.21705771  0.66892073  0.33666118    -0.13000
C1577       C  0.23203675  0.65843068  0.33693788     0.03600
C1578       C  0.23550349  0.64743937  0.32262311    -0.25200
H1579       H  0.21631218  0.62414745  0.27070223     0.08700
H1580       H  0.23843583  0.62761639  0.29363246     0.12300
H1581       H  0.18379437  0.66198762  0.29637850     0.12200
H1582       H  0.19364670  0.67588796  0.32323985     0.12000
H1583       H  0.21412683  0.67758965  0.34745041     0.12500
H1584       H  0.24711563  0.63945774  0.32261460     0.14500
C1585       C  0.13173897  0.55714540  0.15893668    -0.05500
C1586       C  0.14979140  0.55973244  0.16019434    -0.05500
C1587       C  0.15663695  0.57155340  0.17242943    -0.23600
C1588       C  0.14550038  0.58102959  0.18347164     0.18600
C1589       C  0.12729861  0.57904040  0.18158289     0.15800
C1590       C  0.12058993  0.56716476  0.16940334    -0.18700
C1591       C  0.11602500  0.58850963  0.19231522    -0.20500
C1592       C  0.12265476  0.59927236  0.20538679    -0.13000
C1593       C  0.14070060  0.60084798  0.20802643     0.03600
C1594       C  0.15213609  0.59200578  0.19671033    -0.25200
H1595       H  0.15860188  0.55215185  0.15219897     0.08700
H1596       H  0.17062346  0.57296021  0.17354979     0.12300
H1597       H  0.10661913  0.56541029  0.16835346     0.12200
H1598       H  0.10204590  0.58724917  0.19090399     0.12000
H1599       H  0.11354511  0.60606577  0.21376193     0.12500
H1600       H  0.16607311  0.59322846  0.19853743     0.14500
C1601       C  0.14311584  0.43122398  0.20198761    -0.05500
C1602       C  0.15671076  0.44195239  0.19606367    -0.05500
C1603       C  0.15353084  0.45537134  0.18423497    -0.23600
C1604       C  0.13660098  0.45860147  0.17832002     0.18600
C1605       C  0.12272013  0.44801664  0.18417658     0.15800
C1606       C  0.12610108  0.43418833  0.19583760    -0.18700
C1607       C  0.10573609  0.45167131  0.17842617    -0.20500
C1608       C  0.10256038  0.46571858  0.16714258    -0.13000
C1609       C  0.11633492  0.47624917  0.16129471     0.03600
C1610       C  0.13334853  0.47244942  0.16685143    -0.25200
H1611       H  0.16992373  0.43989295  0.20055144     0.08700
H1612       H  0.16431325  0.46338166  0.17988534     0.12300
H1613       H  0.11550937  0.42607404  0.20045572     0.12200
H1614       H  0.09488564  0.44376744  0.18278414     0.12000
H1615       H  0.08934722  0.46836460  0.16301724     0.12500
H1616       H  0.14411408  0.48047368  0.16246604     0.14500
C1617       C  0.10811563  0.52983370  0.40269254    -0.05500
C1618       C  0.09603184  0.54265114  0.40762367    -0.05500
C1619       C  0.09888820  0.55296557  0.42239162    -0.23600
C1620       C  0.11385823  0.55059927  0.43257069     0.18600
C1621       C  0.12578734  0.53729602  0.42817636     0.15800
C1622       C  0.12283841  0.52697461  0.41325061    -0.18700
C1623       C  0.14065228  0.53484807  0.43856567    -0.20500
C1624       C  0.14388045  0.54576507  0.45287876    -0.13000
C1625       C  0.13239009  0.55938071  0.45691738     0.03600
C1626       C  0.11728628  0.56159794  0.44681785    -0.25200
H1627       H  0.08450932  0.54499996  0.39980472     0.08700
H1628       H  0.08954406  0.56299776  0.42566469     0.12300
H1629       H  0.13217567  0.51704799  0.40963846     0.12200
H1630       H  0.14992957  0.52471367  0.43543633     0.12000
H1631       H  0.15569421  0.54396636  0.46039946     0.12500
H1632       H  0.10836357  0.57209398  0.44984964     0.14500
C1633       C  0.11033486  0.54500721  0.32240359    -0.05500
C1634       C  0.09729396  0.55625930  0.31626533    -0.05500
C1635       C  0.10162327  0.57065016  0.30584353    -0.23600
C1636       C  0.11904306  0.57392342  0.30131561     0.18600
C1637       C  0.13213672  0.56243733  0.30724541     0.15800
C1638       C  0.12771596  0.54817922  0.31771910    -0.18700
C1639       C  0.14950389  0.56533587  0.30260739    -0.20500
C1640       C  0.15391502  0.57939168  0.29201280    -0.13000
C1641       C  0.14110690  0.59097850  0.28600079     0.03600
C1642       C  0.12364469  0.58830263  0.29084851    -0.25200
H1643       H  0.08381220  0.55406682  0.31971812     0.08700
H1644       H  0.09136551  0.57922874  0.30136131     0.12300
H1645       H  0.13790396  0.53953629  0.32227638     0.12200
H1646       H  0.15967980  0.55662905  0.30704356     0.12000
H1647       H  0.16743719  0.58118050  0.28845684     0.12500
H1648       H  0.11366043  0.59707531  0.28611148     0.14500
C1649       C  0.13814780  0.42011233  0.28076235    -0.05500
C1650       C  0.11998814  0.42087250  0.28282168    -0.05500
C1651       C  0.11250311  0.43176624  0.29527410    -0.23600
C1652       C  0.12302044  0.44215042  0.30598614     0.18600
C1653       C  0.14133403  0.44089896  0.30481390     0.15800
C1654       C  0.14884240  0.42979755  0.29218649    -0.18700
C1655       C  0.15169640  0.45125437  0.31588197    -0.20500
C1656       C  0.14396648  0.46324562  0.32736515    -0.13000
C1657       C  0.12579155  0.46511702  0.32784877     0.03600
C1658       C  0.11542639  0.45419289  0.31741598    -0.25200
H1659       H  0.11144245  0.41340691  0.27437813     0.08700
H1660       H  0.09845616  0.43243596  0.29617220     0.12300
H1661       H  0.16285705  0.42921883  0.29081466     0.12200
H1662       H  0.16574936  0.45040586  0.31533605     0.12000
H1663       H  0.15219611  0.47147984  0.33538094     0.12500
H1664       H  0.10137927  0.45535909  0.31786739     0.14500
C1665       C  0.03279720  0.41623246  0.39430335    -0.05500
C1666       C  0.04722720  0.41991603  0.40497758    -0.05500
C1667       C  0.05769010  0.43431742  0.40169702    -0.23600
C1668       C  0.05388158  0.44538216  0.38770674     0.18600
C1669       C  0.03926212  0.44208693  0.37696561     0.15800
C1670       C  0.02877919  0.42742438  0.38030200    -0.18700
C1671       C  0.03565642  0.45337194  0.36296214    -0.20500
C1672       C  0.04678198  0.46741147  0.35935633    -0.13000
C1673       C  0.06160008  0.47033050  0.36973857     0.03600
C1674       C  0.06480051  0.45945247  0.38410084    -0.25200
H1675       H  0.05064152  0.41145487  0.41577312     0.08700
H1676       H  0.06887834  0.43668989  0.40999762     0.12300
H1677       H  0.01767115  0.42466913  0.37200489     0.12200
H1678       H  0.02448512  0.45112579  0.35460537     0.12000
H1679       H  0.04411986  0.47561621  0.34816419     0.12500
H1680       H  0.07616252  0.46159972  0.39223880     0.14500
C1681       C  0.87185595  0.17489063  0.26021134    -0.05500
C1682       C  0.88728478  0.18399227  0.25653323    -0.05500
C1683       C  0.89185668  0.19876876  0.26625702    -0.23600
C1684       C  0.88104736  0.20467907  0.27979680     0.18600
C1685       C  0.86520742  0.19590197  0.28314005     0.15800
C1686       C  0.86070823  0.18115484  0.27331570    -0.18700
C1687       C  0.85436377  0.20165609  0.29665030    -0.20500
C1688       C  0.85952229  0.21545492  0.30731864    -0.13000
C1689       C  0.87549704  0.22391227  0.30455402     0.03600
C1690       C  0.88603525  0.21879096  0.29044839    -0.25200
H1691       H  0.89602840  0.17943396  0.24642608     0.08700
H1692       H  0.90401391  0.20533930  0.26343979     0.12300
H1693       H  0.84870310  0.17429849  0.27618286     0.12200
H1694       H  0.84213054  0.19514820  0.29930967     0.12000
H1695       H  0.85116584  0.21926591  0.31805770     0.12500
H1696       H  0.89843831  0.22517877  0.28831996     0.14500
C1697       C  0.92641249  0.29852845  0.35246312    -0.05500
C1698       C  0.93217845  0.31072491  0.34005593    -0.05500
C1699       C  0.94399928  0.32388079  0.34489962    -0.23600
C1700       C  0.95038170  0.32482830  0.36213916     0.18600
C1701       C  0.94455593  0.31248228  0.37452482     0.15800
C1702       C  0.93263665  0.29964242  0.36966459    -0.18700
C1703       C  0.95086576  0.31291410  0.39164370    -0.20500
C1704       C  0.96311871  0.32526675  0.39652037    -0.13000
C1705       C  0.96927846  0.33759342  0.38446196     0.03600
C1706       C  0.96266162  0.33755742  0.36725792    -0.25200
H1707       H  0.92752024  0.31011312  0.32670159     0.08700
H1708       H  0.94827804  0.33317085  0.33514765     0.12300
H1709       H  0.92840993  0.29023879  0.37935124     0.12200
H1710       H  0.94647171  0.30353055  0.40125961     0.12000
H1711       H  0.96784166  0.32510546  0.40987387     0.12500
H1712       H  0.96735329  0.34702213  0.35786431     0.14500
C1713       C  0.98306794  0.10525888  0.39603273    -0.05500
C1714       C  0.97180169  0.09985384  0.40943982    -0.05500
C1715       C  0.96028260  0.08606069  0.40682855    -0.23600
C1716       C  0.95986528  0.07730117  0.39077269     0.18600
C1717       C  0.97149934  0.08219114  0.37732326     0.15800
C1718       C  0.98302728  0.09620472  0.38001569    -0.18700
C1719       C  0.97116534  0.07312878  0.36136029    -0.20500
C1720       C  0.95927204  0.05954082  0.35870902    -0.13000
C1721       C  0.94736762  0.05501391  0.37185826     0.03600
C1722       C  0.94779224  0.06390673  0.38788984    -0.25200
H1723       H  0.97161405  0.10655745  0.42191156     0.08700
H1724       H  0.95154195  0.08239565  0.41730010     0.12300
H1725       H  0.99166800  0.10024949  0.36959656     0.12200
H1726       H  0.97995977  0.07665535  0.35089019     0.12000
H1727       H  0.95898560  0.05294928  0.34617733     0.12500
H1728       H  0.93862688  0.06046659  0.39808450     0.14500
C1729       C  0.92543547  0.21984293  0.36220493    -0.05500
C1730       C  0.93335773  0.20897435  0.34978724    -0.05500
C1731       C  0.94557875  0.19665834  0.35484498    -0.23600
C1732       C  0.95038402  0.19517985  0.37241530     0.18600
C1733       C  0.94239381  0.20580384  0.38520102     0.15800
C1734       C  0.92969032  0.21799876  0.38002400    -0.18700
C1735       C  0.94768833  0.20430220  0.40275339    -0.20500
C1736       C  0.96108771  0.19277068  0.40741910    -0.13000
C1737       C  0.96922898  0.18249073  0.39460831     0.03600
C1738       C  0.96348498  0.18355601  0.37721916    -0.25200
H1739       H  0.93017345  0.21010640  0.33602789     0.08700
H1740       H  0.95159052  0.18856332  0.34492435     0.12300
H1741       H  0.92369676  0.22645754  0.38965009     0.12200
H1742       H  0.94173705  0.21229474  0.41278918     0.12000
H1743       H  0.96525806  0.19209174  0.42092910     0.12500
H1744       H  0.96959198  0.17564953  0.36719165     0.14500
C1745       C  0.14639328  0.34461903  0.25861151    -0.05500
C1746       C  0.13032828  0.33619614  0.25615328    -0.05500
C1747       C  0.12595197  0.32147177  0.26608244    -0.23600
C1748       C  0.13750238  0.31499190  0.27876499     0.18600
C1749       C  0.15399083  0.32293953  0.28074925     0.15800
C1750       C  0.15839428  0.33748507  0.27052861    -0.18700
C1751       C  0.16546203  0.31682193  0.29360466    -0.20500
C1752       C  0.16029544  0.30366812  0.30509107    -0.13000
C1753       C  0.14373348  0.29600289  0.30370336     0.03600
C1754       C  0.13257734  0.30133062  0.29008353    -0.25200
H1755       H  0.12087337  0.34139029  0.24704580     0.08700
H1756       H  0.11326166  0.31555735  0.26430330     0.12300
H1757       H  0.17088832  0.34378195  0.27250337     0.12200
H1758       H  0.17818766  0.32271723  0.29526429     0.12000
H1759       H  0.16914113  0.29974708  0.31539120     0.12500
H1760       H  0.11971489  0.29561588  0.28898060     0.14500
C1761       C  0.04836280  0.18042138  0.37844350    -0.05500
C1762       C  0.05153311  0.17904449  0.36039680    -0.05500
C1763       C  0.06341347  0.19024351  0.35216015    -0.23600
C1764       C  0.07251846  0.20285578  0.36188183     0.18600
C1765       C  0.06975540  0.20388593  0.38014375     0.15800
C1766       C  0.05764820  0.19283351  0.38822802    -0.18700
C1767       C  0.07904683  0.21605527  0.39007567    -0.20500
C1768       C  0.09074115  0.22735643  0.38202777    -0.13000
C1769       C  0.09329326  0.22697511  0.36381159     0.03600
C1770       C  0.08420322  0.21453756  0.35375530    -0.25200
H1771       H  0.04454337  0.16956054  0.35259499     0.08700
H1772       H  0.06539164  0.18911167  0.33817403     0.12300
H1773       H  0.05544587  0.19391057  0.40220405     0.12200
H1774       H  0.07718608  0.21692901  0.40410441     0.12000
H1775       H  0.09757146  0.23671713  0.39012598     0.12500
H1776       H  0.08617464  0.21398420  0.33972686     0.14500
C1777       C  0.09449751  0.30361997  0.36239639    -0.05500
C1778       C  0.08590256  0.31365995  0.34973261    -0.05500
C1779       C  0.07333639  0.32579478  0.35454996    -0.23600
C1780       C  0.06876707  0.32785138  0.37214229     0.18600
C1781       C  0.07744535  0.31806870  0.38514913     0.15800
C1782       C  0.09053421  0.30613728  0.38020638    -0.18700
C1783       C  0.07240603  0.32003944  0.40271885    -0.20500
C1784       C  0.05862662  0.33118373  0.40722860    -0.13000
C1785       C  0.04974220  0.34062051  0.39425887     0.03600
C1786       C  0.05520530  0.33911878  0.37678842    -0.25200
H1787       H  0.08879019  0.31194782  0.33597236     0.08700
H1788       H  0.06681588  0.33321618  0.34443331     0.12300
H1789       H  0.09697385  0.29827297  0.39003560     0.12200
H1790       H  0.07885587  0.31267871  0.41291909     0.12000
H1791       H  0.05469926  0.33215726  0.42078704     0.12500
H1792       H  0.04854322  0.34637736  0.36663489     0.14500
C1793       C  0.89050908  0.54563188  0.83958569    -0.05500
C1794       C  0.87267239  0.54919804  0.83770325    -0.05500
C1795       C  0.86699905  0.56262550  0.82690943    -0.23600
C1796       C  0.87907093  0.57278861  0.81780560     0.18600
C1797       C  0.89709206  0.56985576  0.82008814     0.15800
C1798       C  0.90273191  0.55625890  0.83102225    -0.18700
C1799       C  0.90907087  0.58028142  0.81099690    -0.20500
C1800       C  0.90321097  0.59304195  0.79931079    -0.13000
C1801       C  0.88532427  0.59542446  0.79648407     0.03600
C1802       C  0.87334091  0.58548220  0.80604158    -0.25200
H1803       H  0.86299904  0.54130416  0.84428521     0.08700
H1804       H  0.85316160  0.56481377  0.82539422     0.12300
H1805       H  0.91651354  0.55367495  0.83248614     0.12200
H1806       H  0.92292916  0.57829872  0.81261333     0.12000
H1807       H  0.91263492  0.60054568  0.79197226     0.12500
H1808       H  0.85950698  0.58733836  0.80399259     0.14500
C1809       C  0.88895672  0.55104305  0.66526451    -0.05500
C1810       C  0.87278805  0.55920618  0.66279028    -0.05500
C1811       C  0.86640776  0.57101262  0.67525705    -0.23600
C1812       C  0.87611214  0.57483664  0.69038049     0.18600
C1813       C  0.89250354  0.56682098  0.69273690     0.15800
C1814       C  0.89876858  0.55507300  0.68024181    -0.18700
C1815       C  0.90243341  0.57059835  0.70760250    -0.20500
C1816       C  0.89629414  0.58231405  0.72002740    -0.13000
C1817       C  0.88003427  0.59041619  0.71798181     0.03600
C1818       C  0.86985572  0.58652931  0.70315574    -0.25200
H1819       H  0.86501640  0.55632872  0.65132448     0.08700
H1820       H  0.85386018  0.57707020  0.67311715     0.12300
H1821       H  0.91129591  0.54892180  0.68230545     0.12200
H1822       H  0.91500826  0.56454692  0.70959382     0.12000
H1823       H  0.90434671  0.58502819  0.73135900     0.12500
H1824       H  0.85734410  0.59280020  0.70142175     0.14500
C1825       C  0.85568876  0.42762647  0.78752647    -0.05500
C1826       C  0.84256126  0.43623577  0.79693546    -0.05500
C1827       C  0.84682812  0.44728657  0.81094762    -0.23600
C1828       C  0.86430308  0.44993466  0.81572963     0.18600
C1829       C  0.87750526  0.44109377  0.80641084     0.15800
C1830       C  0.87312388  0.43000793  0.79252620    -0.18700
C1831       C  0.89497885  0.44372999  0.81084379    -0.20500
C1832       C  0.89944007  0.45543061  0.82403528    -0.13000
C1833       C  0.88655657  0.46453748  0.83327618     0.03600
C1834       C  0.86890988  0.46151322  0.82933224    -0.25200
H1835       H  0.82902878  0.43459840  0.79332068     0.08700
H1836       H  0.83649714  0.45392781  0.81787674     0.12300
H1837       H  0.88339608  0.42346146  0.78538740     0.12200
H1838       H  0.90523445  0.43701356  0.80385858     0.12000
H1839       H  0.91309005  0.45751880  0.82693175     0.12500
H1840       H  0.85891621  0.46862807  0.83630315     0.14500
C1841       C  0.86513857  0.43347473  0.70838618    -0.05500
C1842       C  0.85327398  0.44624156  0.70280733    -0.05500
C1843       C  0.85814052  0.45890935  0.69077083    -0.23600
C1844       C  0.87507808  0.45925297  0.68413204     0.18600
C1845       C  0.88730423  0.44665357  0.68965004     0.15800
C1846       C  0.88221140  0.43367593  0.70168844    -0.18700
C1847       C  0.90436520  0.44742488  0.68307107    -0.20500
C1848       C  0.90920563  0.46054425  0.67124027    -0.13000
C1849       C  0.89700742  0.47296287  0.66562497     0.03600
C1850       C  0.87994317  0.47213114  0.67213065    -0.25200
H1851       H  0.84004587  0.44638913  0.70768575     0.08700
H1852       H  0.84863680  0.46850486  0.68670283     0.12300
H1853       H  0.89149936  0.42395594  0.70596972     0.12200
H1854       H  0.91398544  0.43794897  0.68714231     0.12000
H1855       H  0.92243329  0.46092884  0.66641397     0.12500
H1856       H  0.87042224  0.48171051  0.66802831     0.14500
C1857       C  0.88302719  0.29987280  0.80104095    -0.05500
C1858       C  0.89474816  0.30450150  0.78774584    -0.05500
C1859       C  0.89088979  0.31819639  0.77625661    -0.23600
C1860       C  0.87512322  0.32732589  0.77771710     0.18600
C1861       C  0.86295315  0.32218612  0.79057273     0.15800
C1862       C  0.86703524  0.30864894  0.80219667    -0.18700
C1863       C  0.84703598  0.33093472  0.79188627    -0.20500
C1864       C  0.84344321  0.34510105  0.78106901    -0.13000
C1865       C  0.85571565  0.35093608  0.76876528     0.03600
C1866       C  0.87145282  0.34173010  0.76689309    -0.25200
H1867       H  0.90716600  0.29794707  0.78664403     0.08700
H1868       H  0.90036087  0.32183598  0.76643091     0.12300
H1869       H  0.85784083  0.30509436  0.81233664     0.12200
H1870       H  0.83747929  0.32704114  0.80153772     0.12000
H1871       H  0.83117680  0.35182638  0.78270910     0.12500
H1872       H  0.88098504  0.34602497  0.75738993     0.14500
C1873       C  0.92987023  0.22396096  0.85017510    -0.05500
C1874       C  0.93666433  0.21269816  0.83740104    -0.05500
C1875       C  0.94818743  0.19930440  0.84214283    -0.23600
C1876       C  0.95323219  0.19712737  0.85970191     0.18600
C1877       C  0.94653028  0.20860540  0.87249099     0.15800
C1878       C  0.93489583  0.22174694  0.86768842    -0.18700
C1879       C  0.95160544  0.20690322  0.88996688    -0.20500
C1880       C  0.96330045  0.19399246  0.89483562    -0.13000
C1881       C  0.97005821  0.18234343  0.88241306     0.03600
C1882       C  0.96489438  0.18385872  0.86478012    -0.25200
H1883       H  0.93299395  0.21418670  0.82380961     0.08700
H1884       H  0.95319851  0.19072144  0.83209334     0.12300
H1885       H  0.92989113  0.23043656  0.87766672     0.12200
H1886       H  0.94658719  0.21562686  0.89989236     0.12000
H1887       H  0.96697907  0.19305112  0.90848641     0.12500
H1888       H  0.97010598  0.17498122  0.85508990     0.14500
C1889       C  0.04921899  0.17362413  0.89634071    -0.05500
C1890       C  0.05578799  0.18464239  0.90946847    -0.05500
C1891       C  0.06936787  0.19627656  0.90572518    -0.23600
C1892       C  0.07641556  0.19709099  0.88878813     0.18600
C1893       C  0.07032215  0.18539934  0.87583901     0.15800
C1894       C  0.05700680  0.17367707  0.87977219    -0.18700
C1895       C  0.07691061  0.18622890  0.85881775    -0.20500
C1896       C  0.08860862  0.19927180  0.85428666    -0.13000
C1897       C  0.09428592  0.21137613  0.86679180     0.03600
C1898       C  0.08870877  0.20990261  0.88422741    -0.25200
H1899       H  0.04997187  0.18475491  0.92235713     0.08700
H1900       H  0.07388375  0.20507978  0.91586445     0.12300
H1901       H  0.05212626  0.16509710  0.86958778     0.12200
H1902       H  0.07240685  0.17728030  0.84879412     0.12000
H1903       H  0.09290684  0.20022349  0.84083069     0.12500
H1904       H  0.09299434  0.21937651  0.89385602     0.14500
C1905       C  0.98415044  0.42123952  0.89714932    -0.05500
C1906       C  0.97085559  0.42309836  0.90961387    -0.05500
C1907       C  0.95909739  0.43685338  0.90858875    -0.23600
C1908       C  0.96038387  0.44902980  0.89505706     0.18600
C1909       C  0.97415447  0.44785922  0.88287828     0.15800
C1910       C  0.98603605  0.43395883  0.88403363    -0.18700
C1911       C  0.97531889  0.46022721  0.86940048    -0.20500
C1912       C  0.96241554  0.47298976  0.86748105    -0.13000
C1913       C  0.94821613  0.47356188  0.87903581     0.03600
C1914       C  0.94763160  0.46187795  0.89311143    -0.25200
H1915       H  0.96920136  0.41358913  0.91992713     0.08700
H1916       H  0.94868367  0.43766779  0.91808966     0.12300
H1917       H  0.99632754  0.43273098  0.87444182     0.12200
H1918       H  0.98584198  0.45965212  0.86000526     0.12000
H1919       H  0.96312240  0.48188177  0.85652430     0.12500
H1920       H  0.93680632  0.46229858  0.90217352     0.14500
C1921       C  0.97636694  0.34389025  0.87917337    -0.05500
C1922       C  0.97637160  0.34129270  0.86097153    -0.05500
C1923       C  0.96504201  0.32942654  0.85323578    -0.23600
C1924       C  0.95327552  0.32006809  0.86351344     0.18600
C1925       C  0.95297800  0.32255734  0.88184230     0.15800
C1926       C  0.96468083  0.33439374  0.88962451    -0.18700
C1927       C  0.94088894  0.31323342  0.89193988    -0.20500
C1928       C  0.92908155  0.30179736  0.88389885    -0.13000
C1929       C  0.92938231  0.29934248  0.86569219     0.03600
C1930       C  0.94167855  0.30839226  0.85564732    -0.25200
H1931       H  0.98534100  0.34832110  0.85264505     0.08700
H1932       H  0.96542242  0.32764443  0.83917126     0.12300
H1933       H  0.96460366  0.33630672  0.90367929     0.12200
H1934       H  0.94046448  0.31489687  0.90601232     0.12000
H1935       H  0.91981958  0.29478628  0.89189692     0.12500
H1936       H  0.94203558  0.30658151  0.84157506     0.14500
C1937       C  0.05098161  0.34426913  0.87773567    -0.05500
C1938       C  0.05641602  0.34543391  0.86025361    -0.05500
C1939       C  0.06768402  0.33293729  0.85319054    -0.23600
C1940       C  0.07376124  0.31911494  0.86352683     0.18600
C1941       C  0.06883992  0.31824934  0.88131843     0.15800
C1942       C  0.05750101  0.33076842  0.88826757    -0.18700
C1943       C  0.07505670  0.30467279  0.89180268    -0.20500
C1944       C  0.08572369  0.29181837  0.88465774    -0.13000
C1945       C  0.09028707  0.29216052  0.86685319     0.03600
C1946       C  0.08441612  0.30600155  0.85636410    -0.25200
H1947       H  0.05156958  0.35572651  0.85191479     0.08700
H1948       H  0.07140144  0.33391580  0.83956241     0.12300
H1949       H  0.05352425  0.32982671  0.90184352     0.12200
H1950       H  0.07151012  0.30387885  0.90549833     0.12000
H1951       H  0.09018117  0.28138364  0.89305382     0.12500
H1952       H  0.08808249  0.30653391  0.84268939     0.14500
C1953       C  0.16612689  0.28212750  0.85303680    -0.05500
C1954       C  0.16820396  0.29607397  0.84135779    -0.05500
C1955       C  0.18206688  0.30758244  0.84312871    -0.23600
C1956       C  0.19418751  0.30534576  0.85658294     0.18600
C1957       C  0.19267012  0.29104682  0.86810909     0.15800
C1958       C  0.17859829  0.27944325  0.86624747    -0.18700
C1959       C  0.20503411  0.28894390  0.88148688    -0.20500
C1960       C  0.21842266  0.30118100  0.88369051    -0.13000
C1961       C  0.21959620  0.31568365  0.87256200     0.03600
C1962       C  0.20755761  0.31748683  0.85888890    -0.25200
H1963       H  0.15885802  0.29835336  0.83099996     0.08700
H1964       H  0.18313291  0.31842993  0.83413816     0.12300
H1965       H  0.17714510  0.26864710  0.87525688     0.12200
H1966       H  0.20415128  0.27804848  0.89044105     0.12000
H1967       H  0.22752506  0.29959436  0.89438605     0.12500
H1968       H  0.20835203  0.32861387  0.85020623     0.14500
C1969       C  0.33508072  0.40058449  0.95570919    -0.05500
C1970       C  0.32308611  0.41260826  0.94895752    -0.05500
C1971       C  0.31039728  0.40742555  0.93709205    -0.23600
C1972       C  0.30927182  0.39003143  0.93185351     0.18600
C1973       C  0.32124286  0.37766633  0.93835042     0.15800
C1974       C  0.33431528  0.38308370  0.95016138    -0.18700
C1975       C  0.31958085  0.36015726  0.93313597    -0.20500
C1976       C  0.30607635  0.35503757  0.92179872    -0.13000
C1977       C  0.29426212  0.36742344  0.91533585     0.03600
C1978       C  0.29609564  0.38488003  0.92038365    -0.25200
H1979       H  0.32344713  0.42614472  0.95293936     0.08700
H1980       H  0.30128205  0.41701365  0.93219832     0.12300
H1981       H  0.34346763  0.37369701  0.95538143     0.12200
H1982       H  0.32857630  0.35042483  0.93796772     0.12000
H1983       H  0.30490639  0.34149128  0.91804659     0.12500
H1984       H  0.28699254  0.39455314  0.91560793     0.14500
C1985       C  0.04874098  0.39189941  0.93535305    -0.05500
C1986       C  0.05801006  0.40741050  0.93259047    -0.05500
C1987       C  0.07240337  0.41150233  0.94284627    -0.23600
C1988       C  0.07786559  0.40007914  0.95597132     0.18600
C1989       C  0.06853426  0.38452094  0.95910253     0.15800
C1990       C  0.05385748  0.38058548  0.94883665    -0.18700
C1991       C  0.07430464  0.37308887  0.97219625    -0.20500
C1992       C  0.08913105  0.37710305  0.98210364    -0.13000
C1993       C  0.09837317  0.39257803  0.97900778     0.03600
C1994       C  0.09264620  0.40395309  0.96587953    -0.25200
H1995       H  0.05430584  0.41625998  0.92222202     0.08700
H1996       H  0.07944420  0.42347651  0.94030908     0.12300
H1997       H  0.04689801  0.36846165  0.95084120     0.12200
H1998       H  0.06740111  0.36104147  0.97472490     0.12000
H1999       H  0.09341659  0.36809560  0.99209448     0.12500
H2000       H  0.09973134  0.41590250  0.96330706     0.14500
C2001       C  0.12526935  0.44622398  0.03538407    -0.05500
C2002       C  0.10843580  0.44544595  0.04244607    -0.05500
C2003       C  0.10324551  0.45716051  0.05538797    -0.23600
C2004       C  0.11495873  0.46962369  0.06180953     0.18600
C2005       C  0.13182808  0.47082230  0.05454529     0.15800
C2006       C  0.13680085  0.45927221  0.04113037    -0.18700
C2007       C  0.14361028  0.48308685  0.06133217    -0.20500
C2008       C  0.13887382  0.49370313  0.07546880    -0.13000
C2009       C  0.12224571  0.49233145  0.08297333     0.03600
C2010       C  0.11025284  0.48044887  0.07582229    -0.25200
H2011       H  0.09937480  0.43548294  0.03819180     0.08700
H2012       H  0.09026995  0.45608542  0.06078455     0.12300
H2013       H  0.14988699  0.45978442  0.03590590     0.12200
H2014       H  0.15660428  0.48418369  0.05598968     0.12000
H2015       H  0.14834993  0.50273180  0.08076948     0.12500
H2016       H  0.09740000  0.47923833  0.08149717     0.14500
C2017       C  0.17392420  0.39099174  0.96396385    -0.05500
C2018       C  0.17662265  0.37296326  0.96243408    -0.05500
C2019       C  0.18734353  0.36623474  0.94955094    -0.23600
C2020       C  0.19563181  0.37736827  0.93782491     0.18600
C2021       C  0.19277142  0.39552940  0.93866558     0.15800
C2022       C  0.18184278  0.40232405  0.95184628    -0.18700
C2023       C  0.20118101  0.40638643  0.92649010    -0.20500
C2024       C  0.21268813  0.39928067  0.91409771    -0.13000
C2025       C  0.21595155  0.38128202  0.91385580     0.03600
C2026       C  0.20707152  0.37046091  0.92553217    -0.25200
H2027       H  0.17060429  0.36390238  0.97143904     0.08700
H2028       H  0.18935824  0.35229149  0.94893846     0.12300
H2029       H  0.17973549  0.41623686  0.95282782     0.12200
H2030       H  0.19911557  0.42033107  0.92676061     0.12000
H2031       H  0.21939959  0.40784812  0.90511394     0.12500
H2032       H  0.20930475  0.35652572  0.92527652     0.14500
C2033       C  0.23576436  0.36040793  0.15659120    -0.05500
C2034       C  0.22214680  0.34836808  0.15876412    -0.05500
C2035       C  0.20983365  0.35055874  0.17191055    -0.23600
C2036       C  0.21095457  0.36475195  0.18331907     0.18600
C2037       C  0.22492988  0.37665268  0.18180169     0.15800
C2038       C  0.23724993  0.37447163  0.16832869    -0.18700
C2039       C  0.22606212  0.39064889  0.19359879    -0.20500
C2040       C  0.21321579  0.39307139  0.20638313    -0.13000
C2041       C  0.19895412  0.38166713  0.20740434     0.03600
C2042       C  0.19806651  0.36739944  0.19597135    -0.25200
H2043       H  0.22071298  0.33739945  0.14996969     0.08700
H2044       H  0.19926709  0.34125813  0.17298777     0.12300
H2045       H  0.24775171  0.38378682  0.16682648     0.12200
H2046       H  0.23670245  0.39987924  0.19274802     0.12000
H2047       H  0.21407194  0.40422129  0.21502069     0.12500
H2048       H  0.18713197  0.35848264  0.19672494     0.14500
C2049       C  0.22488135  0.36138490  0.07945207    -0.05500
C2050       C  0.21630473  0.34773534  0.07070825    -0.05500
C2051       C  0.20215588  0.35122288  0.05961997    -0.23600
C2052       C  0.19641605  0.36840996  0.05711281     0.18600
C2053       C  0.20503648  0.38210694  0.06598559     0.15800
C2054       C  0.21906087  0.37850788  0.07704134    -0.18700
C2055       C  0.19969653  0.39931207  0.06353428    -0.20500
C2056       C  0.18620433  0.40307266  0.05204930    -0.13000
C2057       C  0.17761019  0.38972655  0.04292930     0.03600
C2058       C  0.18251905  0.37229797  0.04570058    -0.25200
H2059       H  0.22055740  0.33441782  0.07241455     0.08700
H2060       H  0.19578472  0.34050610  0.05293004     0.12300
H2061       H  0.22555171  0.38917385  0.08371562     0.12200
H2062       H  0.20617345  0.40992930  0.07027708     0.12000
H2063       H  0.18258685  0.41656133  0.05011760     0.12500
H2064       H  0.17604717  0.36194968  0.03851934     0.14500
C2065       C  0.30450914  0.37536023  0.08192729    -0.05500
C2066       C  0.31538625  0.36325943  0.07356979    -0.05500
C2067       C  0.32731278  0.36858528  0.06101809    -0.23600
C2068       C  0.32844859  0.38613274  0.05636315     0.18600
C2069       C  0.31809497  0.39864170  0.06507448     0.15800
C2070       C  0.30625206  0.39318301  0.07805574    -0.18700
C2071       C  0.31937042  0.41620972  0.06010646    -0.20500
C2072       C  0.33026330  0.42115545  0.04623986    -0.13000
C2073       C  0.34003550  0.40860422  0.03718303     0.03600
C2074       C  0.33934557  0.39119395  0.04265061    -0.25200
H2075       H  0.31439619  0.34949848  0.07649856     0.08700
H2076       H  0.33526285  0.35887454  0.05454254     0.12300
H2077       H  0.29785193  0.40258110  0.08442073     0.12200
H2078       H  0.31162660  0.42604148  0.06663446     0.12000
H2079       H  0.33068100  0.43467666  0.04229426     0.12500
H2080       H  0.34696847  0.38140321  0.03588142     0.14500
C2081       C  0.99642945  0.59126331  0.61421849    -0.05500
C2082       C  0.99876991  0.58199736  0.62988704    -0.05500
C2083       C  0.98796542  0.56784706  0.63399516    -0.23600
C2084       C  0.97456996  0.56277034  0.62254161     0.18600
C2085       C  0.97233927  0.57187894  0.60663851     0.15800
C2086       C  0.98327576  0.58594006  0.60257804    -0.18700
C2087       C  0.95887818  0.56711350  0.59522900    -0.20500
C2088       C  0.94727361  0.55391571  0.59980055    -0.13000
C2089       C  0.94902331  0.54500548  0.61573732     0.03600
C2090       C  0.96300211  0.54918523  0.62690891    -0.25200
H2091       H  0.00876334  0.58587739  0.63910004     0.08700
H2092       H  0.98988679  0.56108009  0.64627307     0.12300
H2093       H  0.98127770  0.59299036  0.59046084     0.12200
H2094       H  0.95701892  0.57392984  0.58296284     0.12000
H2095       H  0.93663838  0.55090539  0.59098749     0.12500
H2096       H  0.96434297  0.54250540  0.63932034     0.14500
C2097       C  0.10280809  0.60212673  0.52166066    -0.05500
C2098       C  0.09966893  0.58941865  0.53450436    -0.05500
C2099       C  0.08662569  0.59171842  0.54694850    -0.23600
C2100       C  0.07636980  0.60675318  0.54679279     0.18600
C2101       C  0.07876064  0.61928272  0.53346947     0.15800
C2102       C  0.09197459  0.61687542  0.52092596    -0.18700
C2103       C  0.06823932  0.63421692  0.53332220    -0.20500
C2104       C  0.05588673  0.63693359  0.54652285    -0.13000
C2105       C  0.05394222  0.62482446  0.56014662     0.03600
C2106       C  0.06409528  0.60964905  0.56003980    -0.25200
H2107       H  0.10769971  0.57787520  0.53530187     0.08700
H2108       H  0.08484632  0.58190399  0.55697390     0.12300
H2109       H  0.09419999  0.62672319  0.51101712     0.12200
H2110       H  0.06980259  0.64396661  0.52319829     0.12000
H2111       H  0.04825623  0.64877117  0.54640118     0.12500
H2112       H  0.06264906  0.60019329  0.57047123     0.14500
C2113       C  0.85263353  0.77024318  0.62892601    -0.05500
C2114       C  0.84467019  0.76755098  0.61260386    -0.05500
C2115       C  0.82973441  0.77689197  0.60800458    -0.23600
C2116       C  0.82271971  0.78921327  0.61957481     0.18600
C2117       C  0.83045246  0.79163948  0.63619816     0.15800
C2118       C  0.84515978  0.78198256  0.64082634    -0.18700
C2119       C  0.82387153  0.80428283  0.64761548    -0.20500
C2120       C  0.81036538  0.81512144  0.64224059    -0.13000
C2121       C  0.80290442  0.81313646  0.62558788     0.03600
C2122       C  0.80868741  0.79975999  0.61451943    -0.25200
H2123       H  0.85021822  0.75853618  0.60325609     0.08700
H2124       H  0.82400057  0.77488044  0.59519685     0.12300
H2125       H  0.85119421  0.78413497  0.65349203     0.12200
H2126       H  0.82964245  0.80626895  0.66042380     0.12000
H2127       H  0.80598050  0.82534086  0.65095316     0.12500
H2128       H  0.80304628  0.79832510  0.60158270     0.14500
C2129       C  0.88316068  0.71686724  0.68251256    -0.05500
C2130       C  0.86655164  0.70932854  0.68140631    -0.05500
C2131       C  0.86142541  0.69651028  0.69319457    -0.23600
C2132       C  0.87294639  0.69075823  0.70614120     0.18600
C2133       C  0.88955864  0.69853871  0.70775170     0.15800
C2134       C  0.89449966  0.71178698  0.69603454    -0.18700
C2135       C  0.90108531  0.69244661  0.72063475    -0.20500
C2136       C  0.89635664  0.67848453  0.73143971    -0.13000
C2137       C  0.88000785  0.67046648  0.72958034     0.03600
C2138       C  0.86827467  0.67693015  0.71709225    -0.25200
H2139       H  0.85761024  0.71312524  0.67113609     0.08700
H2140       H  0.84862863  0.69071711  0.69184067     0.50700
H2141       H  0.90740032  0.71745515  0.69685696     0.12200
H2142       H  0.91388034  0.69820981  0.72209053     0.12000
H2143       H  0.90561879  0.67371366  0.74097533     0.12500
H2144       H  0.85561112  0.67087697  0.71554120     0.14500
C2145       C  0.93366438  0.71186771  0.62204121    -0.05500
C2146       C  0.93539404  0.70827366  0.60412086    -0.05500
C2147       C  0.94825012  0.69672686  0.59824895    -0.23600
C2148       C  0.95935989  0.68847415  0.61025991     0.18600
C2149       C  0.95729274  0.69177862  0.62833738     0.15800
C2150       C  0.94457705  0.70345156  0.63405102    -0.18700
C2151       C  0.96808364  0.68350437  0.64047720    -0.20500
C2152       C  0.98099334  0.67215262  0.63481361    -0.13000
C2153       C  0.98342716  0.66887451  0.61689325     0.03600
C2154       C  0.97252550  0.67705954  0.60461182    -0.25200
H2155       H  0.92710596  0.71470087  0.59466792     0.08700
H2156       H  0.94957608  0.69434072  0.58434008     0.12300
H2157       H  0.94320877  0.70604955  0.64794268     0.12200
H2158       H  0.96660002  0.68588042  0.65438506     0.12000
H2159       H  0.98920174  0.66602234  0.64453093     0.12500
H2160       H  0.97429199  0.67458169  0.59076122     0.14500
C2161       C  0.97655776  0.88475857  0.55053308    -0.05500
C2162       C  0.97476413  0.87451117  0.53538810    -0.05500
C2163       C  0.96111532  0.87763851  0.52355627    -0.23600
C2164       C  0.94904320  0.89102248  0.52673400     0.18600
C2165       C  0.95128846  0.90176185  0.54159866     0.15800
C2166       C  0.96502209  0.89866052  0.55322199    -0.18700
C2167       C  0.93941979  0.91511915  0.54500960    -0.20500
C2168       C  0.92518370  0.91767052  0.53404127    -0.13000
C2169       C  0.92245042  0.90693835  0.51938580     0.03600
C2170       C  0.93456668  0.89367038  0.51566102    -0.25200
H2171       H  0.98346609  0.86368098  0.53306646     0.08700
H2172       H  0.95971717  0.86928679  0.51219446     0.12300
H2173       H  0.96631496  0.90673796  0.56481322     0.12200
H2174       H  0.94098438  0.92345738  0.55636982     0.12000
H2175       H  0.91610781  0.92795669  0.53723625     0.12500
H2176       H  0.93262240  0.88533173  0.50436130     0.14500
C2177       C  0.96921548  0.83667055  0.60631990    -0.05500
C2178       C  0.96112223  0.82751814  0.59262784    -0.05500
C2179       C  0.94863804  0.81484672  0.59608713    -0.23600
C2180       C  0.94426738  0.81078769  0.61335910     0.18600
C2181       C  0.95206461  0.82006281  0.62732565     0.15800
C2182       C  0.96436136  0.83320324  0.62370017    -0.18700
C2183       C  0.94778878  0.81559859  0.64460518    -0.20500
C2184       C  0.93638792  0.80174447  0.64797709    -0.13000
C2185       C  0.92898124  0.79224896  0.63412108     0.03600
C2186       C  0.93267829  0.79716139  0.61684202    -0.25200
H2187       H  0.96458114  0.83010502  0.57914766     0.08700
H2188       H  0.94273809  0.80788591  0.58523788     0.12300
H2189       H  0.97065832  0.84015593  0.63433166     0.12200
H2190       H  0.95358628  0.82254057  0.65551355     0.12000
H2191       H  0.93365564  0.79822491  0.66139963     0.12500
H2192       H  0.92698682  0.78997237  0.60601707     0.14500
C2193       C  0.22581278  0.69852869  0.62508285    -0.05500
C2194       C  0.22488990  0.71307142  0.61401169    -0.05500
C2195       C  0.21203235  0.72577426  0.61652576    -0.23600
C2196       C  0.19995101  0.72417521  0.63021223     0.18600
C2197       C  0.20145709  0.71006020  0.64196238     0.15800
C2198       C  0.21432032  0.69737911  0.63932058    -0.18700
C2199       C  0.18966262  0.70848096  0.65580801    -0.20500
C2200       C  0.17601113  0.72030689  0.65759370    -0.13000
C2201       C  0.17378207  0.73394888  0.64554718     0.03600
C2202       C  0.18607871  0.73605254  0.63205743    -0.25200
H2203       H  0.23359482  0.71421340  0.60294909     0.08700
H2204       H  0.21121914  0.73657289  0.60745464     0.12300
H2205       H  0.21500048  0.68626359  0.64803776     0.12200
H2206       H  0.19073375  0.69782560  0.66503626     0.12000
H2207       H  0.16686400  0.71844969  0.66818645     0.12500
H2208       H  0.18460594  0.74660728  0.62277310     0.14500
C2209       C  0.09568980  0.72446836  0.63544461    -0.05500
C2210       C  0.08695152  0.72685166  0.61949852    -0.05500
C2211       C  0.07595062  0.71404033  0.61292275    -0.23600
C2212       C  0.07367221  0.69844977  0.62205578     0.18600
C2213       C  0.08245446  0.69571413  0.63807733     0.15800
C2214       C  0.09332773  0.70890955  0.64483929    -0.18700
C2215       C  0.08019229  0.67981795  0.64689387    -0.20500
C2216       C  0.06908350  0.66696936  0.64004303    -0.13000
C2217       C  0.06010554  0.66986760  0.62430185     0.03600
C2218       C  0.06265051  0.68560422  0.61534804    -0.25200
H2219       H  0.08860905  0.73875267  0.61208919     0.08700
H2220       H  0.06930410  0.71629177  0.60062159     0.12300
H2221       H  0.10022911  0.70693756  0.65704600     0.12200
H2222       H  0.08689372  0.67738353  0.65911897     0.12000
H2223       H  0.06733266  0.65491104  0.64714233     0.12500
H2224       H  0.05588490  0.68799443  0.60312944     0.14500
C2225       C  0.09838788  0.80074567  0.62566937    -0.05500
C2226       C  0.09905023  0.80393776  0.60759639    -0.05500
C2227       C  0.08695104  0.81510336  0.59968204    -0.23600
C2228       C  0.07406585  0.82333721  0.60973835     0.18600
C2229       C  0.07376758  0.82064820  0.62802910     0.15800
C2230       C  0.08584288  0.80938895  0.63581894    -0.18700
C2231       C  0.06115432  0.82896148  0.63823066    -0.20500
C2232       C  0.04859881  0.83944978  0.63037993    -0.13000
C2233       C  0.04829872  0.84180378  0.61214006     0.03600
C2234       C  0.06127695  0.83390510  0.60186850    -0.25200
H2235       H  0.10859507  0.79741003  0.59952267     0.08700
H2236       H  0.08748741  0.81705988  0.58565346     0.12300
H2237       H  0.08528989  0.80713677  0.64981972     0.12200
H2238       H  0.06082483  0.82713716  0.65229410     0.12000
H2239       H  0.03885617  0.84545884  0.63862397     0.12500
H2240       H  0.06127281  0.83576093  0.58780856     0.14500
C2241       C  0.62533424  0.53484786  0.16441229    -0.05500
C2242       C  0.64257095  0.53376949  0.17055319    -0.05500
C2243       C  0.64924682  0.54612559  0.18213381    -0.23600
C2244       C  0.63887209  0.55995923  0.18783933     0.18600
C2245       C  0.62140964  0.56113923  0.18207736     0.15800
C2246       C  0.61467351  0.54848571  0.17044924    -0.18700
C2247       C  0.61115390  0.57512085  0.18786782    -0.20500
C2248       C  0.61819545  0.58789550  0.19895446    -0.13000
C2249       C  0.63559769  0.58690575  0.20455285     0.03600
C2250       C  0.64579143  0.57273530  0.19904843    -0.25200
H2251       H  0.65105597  0.52335774  0.16625953     0.08700
H2252       H  0.66263234  0.54496622  0.18646073     0.12300
H2253       H  0.60136935  0.54947601  0.16581885     0.12200
H2254       H  0.59772492  0.57627861  0.18368744     0.12000
H2255       H  0.61002827  0.59859089  0.20312015     0.12500
H2256       H  0.65922821  0.57175534  0.20329585     0.14500
C2257       C  0.62169540  0.55310619  0.32439013    -0.05500
C2258       C  0.60895518  0.55811823  0.31219399    -0.05500
C2259       C  0.61290247  0.56958213  0.29875061    -0.23600
C2260       C  0.62972411  0.57627462  0.29712992     0.18600
C2261       C  0.64275394  0.57161464  0.30930993     0.15800
C2262       C  0.63861576  0.56007649  0.32305473    -0.18700
C2263       C  0.65965487  0.57838226  0.30722765    -0.20500
C2264       C  0.66354051  0.58945999  0.29312654    -0.13000
C2265       C  0.65052183  0.59403049  0.28106429     0.03600
C2266       C  0.63365180  0.58742188  0.28329746    -0.25200
H2267       H  0.59583258  0.55300837  0.31292027     0.08700
H2268       H  0.60280804  0.57305988  0.28948102     0.12300
H2269       H  0.64855545  0.55619874  0.33232214     0.12200
H2270       H  0.66986830  0.57498943  0.31638074     0.12000
H2271       H  0.67664243  0.59443973  0.29165997     0.12500
H2272       H  0.62349098  0.59073006  0.27402647     0.14500
C2273       C  0.63112994  0.45882078  0.15843396    -0.05500
C2274       C  0.64848104  0.45330360  0.15689632    -0.05500
C2275       C  0.65581353  0.44227106  0.16949997    -0.23600
C2276       C  0.64586966  0.43657652  0.18379646     0.18600
C2277       C  0.62823309  0.44166706  0.18503415     0.15800
C2278       C  0.62102054  0.45266968  0.17239870    -0.18700
C2279       C  0.61810250  0.43597542  0.19908685    -0.20500
C2280       C  0.62538075  0.42546340  0.21195182    -0.13000
C2281       C  0.64297133  0.42055933  0.21115920     0.03600
C2282       C  0.65321808  0.42610355  0.19698967    -0.25200
H2283       H  0.65652011  0.45793032  0.14624927     0.08700
H2284       H  0.66931142  0.43845674  0.16823474     0.12300
H2285       H  0.60759619  0.45678307  0.17369415     0.12200
H2286       H  0.60457739  0.43975990  0.20020764     0.12000
H2287       H  0.61724013  0.42140329  0.22276790     0.12500
H2288       H  0.66676194  0.42228942  0.19624224     0.14500
C2289       C  0.63643409  0.42483438  0.28682609    -0.05500
C2290       C  0.62054364  0.42109426  0.29507775    -0.05500
C2291       C  0.61288923  0.43330646  0.30637420    -0.23600
C2292       C  0.62111417  0.44934576  0.30967360     0.18600
C2293       C  0.63708411  0.45307392  0.30130428     0.15800
C2294       C  0.64448021  0.44094959  0.28990702    -0.18700
C2295       C  0.64566436  0.46878192  0.30464180    -0.20500
C2296       C  0.63874020  0.48062154  0.31648942    -0.13000
C2297       C  0.62293659  0.47719192  0.32500956     0.03600
C2298       C  0.61394027  0.46162040  0.32135785    -0.25200
H2299       H  0.61407096  0.40877113  0.29280335     0.08700
H2300       H  0.60065691  0.43014448  0.31265175     0.12300
H2301       H  0.65673505  0.44402820  0.28360161     0.12200
H2302       H  0.65789568  0.47180844  0.29828817     0.12000
H2303       H  0.64578805  0.49259802  0.31897402     0.12500
H2304       H  0.60176048  0.45887275  0.32794212     0.14500
C2305       C  0.57024087  0.46720530  0.10998485    -0.05500
C2306       C  0.57111154  0.46021817  0.09301662    -0.05500
C2307       C  0.55968288  0.44708593  0.08772638    -0.23600
C2308       C  0.54741551  0.44037368  0.09946330     0.18600
C2309       C  0.54609521  0.44756221  0.11645268     0.15800
C2310       C  0.55735045  0.46116198  0.12152897    -0.18700
C2311       C  0.53402718  0.44052077  0.12826289    -0.20500
C2312       C  0.52375373  0.42621089  0.12346929    -0.13000
C2313       C  0.52527406  0.41875768  0.10675290     0.03600
C2314       C  0.53692301  0.42616062  0.09469282    -0.25200
H2315       H  0.58094803  0.46467613  0.08392604     0.08700
H2316       H  0.56085299  0.44176210  0.07464328     0.12300
H2317       H  0.55674972  0.46631579  0.13472217     0.12200
H2318       H  0.53282199  0.44581579  0.14134555     0.12000
H2319       H  0.51485709  0.42075600  0.13297104     0.12500
H2320       H  0.53819673  0.42055624  0.08172855     0.14500
C2321       C  0.41584631  0.40488183  0.01497688    -0.05500
C2322       C  0.42485265  0.38996122  0.00944257    -0.05500
C2323       C  0.43975243  0.38438716  0.01837005    -0.23600
C2324       C  0.44573377  0.39354543  0.03309847     0.18600
C2325       C  0.43686423  0.40874318  0.03852525     0.15800
C2326       C  0.42215867  0.41439856  0.02933671    -0.18700
C2327       C  0.44244762  0.41773681  0.05344285    -0.20500
C2328       C  0.45628468  0.41138452  0.06331446    -0.13000
C2329       C  0.46499889  0.39611766  0.05829907     0.03600
C2330       C  0.45997306  0.38744646  0.04290140    -0.25200
H2331       H  0.42021546  0.38244611  0.99838171     0.08700
H2332       H  0.44633559  0.37270605  0.01401640     0.12300
H2333       H  0.41528710  0.42590296  0.03375525     0.12200
H2334       H  0.43578768  0.42938674  0.05777480     0.12000
H2335       H  0.45996098  0.41825254  0.07514499     0.12500
H2336       H  0.46650074  0.37553582  0.03909632     0.14500
C2337       C  0.65631425  0.34548134  0.22620547    -0.05500
C2338       C  0.66824677  0.34223431  0.21269019    -0.05500
C2339       C  0.66571360  0.32845822  0.20114531    -0.23600
C2340       C  0.65115948  0.31766545  0.20285580     0.18600
C2341       C  0.63939054  0.32023238  0.21681437     0.15800
C2342       C  0.64208639  0.33415118  0.22851860    -0.18700
C2343       C  0.62482989  0.30923919  0.21831182    -0.20500
C2344       C  0.62157624  0.29643031  0.20560738    -0.13000
C2345       C  0.63284469  0.29449855  0.19128461     0.03600
C2346       C  0.64785740  0.30483006  0.19032111    -0.25200
H2347       H  0.67933760  0.35070726  0.21067091     0.08700
H2348       H  0.67487367  0.32657042  0.19055312     0.12300
H2349       H  0.63281084  0.33655889  0.23890675     0.12200
H2350       H  0.61568575  0.31091979  0.22895284     0.12000
H2351       H  0.60988147  0.28861280  0.20653964     0.12500
H2352       H  0.65668241  0.30334097  0.17936846     0.14500
C2353       C  0.54061760  0.34190375  0.10135179    -0.05500
C2354       C  0.55011575  0.33384105  0.08791355    -0.05500
C2355       C  0.56407690  0.32276962  0.09194002    -0.23600
C2356       C  0.56864448  0.31957346  0.10945996     0.18600
C2357       C  0.55923474  0.32792364  0.12294672     0.15800
C2358       C  0.54545472  0.33901335  0.11881319    -0.18700
C2359       C  0.56342554  0.32477447  0.14046192    -0.20500
C2360       C  0.57640386  0.31291295  0.14468745    -0.13000
C2361       C  0.58565860  0.30421996  0.13151343     0.03600
C2362       C  0.58206197  0.30786992  0.11384211    -0.25200
H2363       H  0.54664914  0.33596073  0.07435257     0.08700
H2364       H  0.57111408  0.31652506  0.08139604     0.12300
H2365       H  0.53829609  0.34520991  0.12931936     0.12200
H2366       H  0.55637115  0.33116031  0.15091380     0.12000
H2367       H  0.57910152  0.31036256  0.15835945     0.12500
H2368       H  0.58911895  0.30109724  0.10363483     0.14500
C2369       C  0.34952255  0.27309164  0.13439027    -0.05500
C2370       C  0.34137369  0.27025995  0.11817501    -0.05500
C2371       C  0.32676791  0.28004014  0.11334391    -0.23600
C2372       C  0.32014871  0.29285162  0.12463132     0.18600
C2373       C  0.32810434  0.29548378  0.14111370     0.15800
C2374       C  0.34260093  0.28554428  0.14589920    -0.18700
C2375       C  0.32177078  0.30838245  0.15237445    -0.20500
C2376       C  0.30808203  0.31905517  0.14713279    -0.13000
C2377       C  0.30028078  0.31685364  0.13066410     0.03600
C2378       C  0.30610215  0.30345215  0.11957380    -0.25200
H2379       H  0.34648266  0.26071371  0.10910853     0.08700
H2380       H  0.32086133  0.27781892  0.10065112     0.12300
H2381       H  0.34877270  0.28784410  0.15847073     0.12200
H2382       H  0.32771171  0.31053008  0.16507395     0.12000
H2383       H  0.30377115  0.32928133  0.15586800     0.12500
H2384       H  0.30025602  0.30180802  0.10675318     0.14500
C2385       C  0.42570062  0.29217015  0.13935556    -0.05500
C2386       C  0.43446978  0.30118025  0.15272299    -0.05500
C2387       C  0.44509978  0.31548500  0.14874142    -0.23600
C2388       C  0.44713641  0.32095398  0.13133400     0.18600
C2389       C  0.43799084  0.31214285  0.11791316     0.15800
C2390       C  0.42733027  0.29794831  0.12201653    -0.18700
C2391       C  0.44002049  0.31732458  0.10049729    -0.20500
C2392       C  0.45159538  0.33062335  0.09626419    -0.13000
C2393       C  0.46114165  0.33922110  0.10937097     0.03600
C2394       C  0.45852506  0.33466319  0.12698660    -0.25200
H2395       H  0.43333709  0.29698791  0.16618329     0.08700
H2396       H  0.45197385  0.32206963  0.15923727     0.12300
H2397       H  0.42050479  0.29118377  0.11158304     0.12200
H2398       H  0.43300794  0.31075916  0.09007165     0.12000
H2399       H  0.45328911  0.33403852  0.08263222     0.12500
H2400       H  0.46589844  0.34121377  0.13716697     0.14500
C2401       C  0.47473676  0.17348981  0.10166790    -0.05500
C2402       C  0.46612066  0.18263863  0.08832233    -0.05500
C2403       C  0.45228320  0.19383565  0.09230172    -0.23600
C2404       C  0.44697525  0.19619779  0.10970970     0.18600
C2405       C  0.45561976  0.18698449  0.12316292     0.15800
C2406       C  0.46926786  0.17564704  0.11904834    -0.18700
C2407       C  0.45075347  0.18951268  0.14060420    -0.20500
C2408       C  0.43778201  0.20143408  0.14478771    -0.13000
C2409       C  0.42920138  0.21085008  0.13162055     0.03600
C2410       C  0.43355704  0.20791985  0.11401193    -0.25200
H2411       H  0.47012300  0.18117960  0.07483290     0.08700
H2412       H  0.44589166  0.20082095  0.08179140     0.12300
H2413       H  0.47584885  0.16870785  0.12948481     0.12200
H2414       H  0.45724865  0.18254530  0.15106263     0.12000
H2415       H  0.43455942  0.20344508  0.15843339     0.12500
H2416       H  0.42707342  0.21526886  0.10380292     0.14500
C2417       C  0.55287958  0.17181041  0.11723881    -0.05500
C2418       C  0.55707527  0.17070326  0.13509805    -0.05500
C2419       C  0.56790536  0.18329787  0.14288171    -0.23600
C2420       C  0.57460213  0.19713663  0.13288644     0.18600
C2421       C  0.57084011  0.19776100  0.11479033     0.15800
C2422       C  0.56024648  0.18511274  0.10715433    -0.18700
C2423       C  0.57725563  0.21133358  0.10454849    -0.20500
C2424       C  0.58704550  0.22450140  0.11213635    -0.13000
C2425       C  0.59076166  0.22440665  0.13014304     0.03600
C2426       C  0.58465201  0.21054518  0.14053393    -0.25200
H2427       H  0.55155980  0.16048314  0.14310176     0.08700
H2428       H  0.57068744  0.18245653  0.15675703     0.12300
H2429       H  0.55729269  0.18597210  0.09329414     0.12200
H2430       H  0.57446550  0.21193083  0.09065180     0.12000
H2431       H  0.59159736  0.23493096  0.10379582     0.12500
H2432       H  0.58751562  0.21030743  0.15442415     0.14500
C2433       C  0.60459280  0.11208811  0.01884800    -0.05500
C2434       C  0.60341119  0.10131141  0.03364692    -0.05500
C2435       C  0.58950474  0.10285937  0.04520040    -0.23600
C2436       C  0.57649308  0.11522102  0.04218571     0.18600
C2437       C  0.57730891  0.12594162  0.02718704     0.15800
C2438       C  0.59139796  0.12431557  0.01558209    -0.18700
C2439       C  0.56417187  0.13828515  0.02428817    -0.20500
C2440       C  0.55069513  0.14036252  0.03642302    -0.13000
C2441       C  0.55015234  0.13010548  0.05161103     0.03600
C2442       C  0.56292801  0.11731743  0.05419817    -0.25200
H2443       H  0.61338978  0.09176377  0.03643523     0.08700
H2444       H  0.58904721  0.09452232  0.05662841     0.12300
H2445       H  0.59216865  0.13262848  0.00415158     0.12200
H2446       H  0.56452003  0.14658208  0.01283299     0.12000
H2447       H  0.54100163  0.15033021  0.03419498     0.12500
H2448       H  0.56261272  0.10928835  0.06586102     0.14500
C2449       C  0.62912528  0.06557942  0.95818538    -0.05500
C2450       C  0.61155865  0.06548206  0.95312115    -0.05500
C2451       C  0.60586789  0.05476251  0.93954960    -0.23600
C2452       C  0.61775872  0.04426368  0.93056338     0.18600
C2453       C  0.63528108  0.04349205  0.93620420     0.15800
C2454       C  0.64080483  0.05395993  0.95024612    -0.18700
C2455       C  0.64717401  0.03314836  0.92695764    -0.20500
C2456       C  0.64201945  0.02460052  0.91163005    -0.13000
C2457       C  0.62489390  0.02621209  0.90540783     0.03600
C2458       C  0.61265253  0.03545495  0.91535283    -0.25200
H2459       H  0.60235106  0.07427843  0.95918690     0.08700
H2460       H  0.59236793  0.05539457  0.93547553     0.12300
H2461       H  0.65440960  0.05408610  0.95402735     0.12200
H2462       H  0.66062846  0.03230603  0.93112705     0.12000
H2463       H  0.65162543  0.01740725  0.90421905     0.12500
H2464       H  0.59934906  0.03660213  0.91074039     0.14500
C2465       C  0.74568120  0.15269223  0.83226828    -0.05500
C2466       C  0.74917577  0.13626751  0.82494647    -0.05500
C2467       C  0.74128781  0.13122887  0.80915618    -0.23600
C2468       C  0.72973463  0.14252575  0.80054970     0.18600
C2469       C  0.72683963  0.15932541  0.80755178     0.15800
C2470       C  0.73487924  0.16428725  0.82319295    -0.18700
C2471       C  0.71525316  0.17068957  0.79930548    -0.20500
C2472       C  0.70564293  0.16509693  0.78493989    -0.13000
C2473       C  0.70761846  0.14815607  0.77837192     0.03600
C2474       C  0.72024428  0.13709051  0.78571872    -0.25200
H2475       H  0.75757337  0.12715492  0.83167829     0.08700
H2476       H  0.74376723  0.11832329  0.80399861     0.12300
H2477       H  0.73219364  0.17704799  0.82863248     0.12200
H2478       H  0.71300105  0.18363695  0.80446874     0.12000
H2479       H  0.69601641  0.17379989  0.77941427     0.12500
H2480       H  0.72166852  0.12391868  0.78081493     0.14500
C2481       C  0.85052479  0.23837907  0.84616108    -0.05500
C2482       C  0.84648150  0.22536907  0.83384971    -0.05500
C2483       C  0.83183447  0.21484340  0.83590674    -0.23600
C2484       C  0.82087563  0.21707879  0.85033750     0.18600
C2485       C  0.82437427  0.23048392  0.86254977     0.15800
C2486       C  0.83921860  0.24108033  0.86039552    -0.18700
C2487       C  0.81318522  0.23269675  0.87689822    -0.20500
C2488       C  0.79912387  0.22133018  0.87945983    -0.13000
C2489       C  0.79611878  0.20749281  0.86780442     0.03600
C2490       C  0.80683021  0.20571639  0.85304513    -0.25200
H2491       H  0.85486580  0.22307405  0.82271737     0.08700
H2492       H  0.82927416  0.20469954  0.82636264     0.12300
H2493       H  0.84214916  0.25112296  0.86994072     0.12200
H2494       H  0.81556697  0.24293212  0.88637893     0.12000
H2495       H  0.79109039  0.22286552  0.89098268     0.12500
H2496       H  0.80456106  0.19510702  0.84393313     0.14500
C2497       C  0.71603345  0.16025107  0.90721630    -0.05500
C2498       C  0.70842979  0.17296513  0.91799540    -0.05500
C2499       C  0.69473897  0.16853275  0.92931957    -0.23600
C2500       C  0.68858991  0.15129567  0.93009133     0.18600
C2501       C  0.69541662  0.13883631  0.91832318     0.15800
C2502       C  0.70885203  0.14344467  0.90688201    -0.18700
C2503       C  0.68959442  0.12159473  0.91896437    -0.20500
C2504       C  0.67825517  0.11633327  0.93211386    -0.13000
C2505       C  0.67218492  0.12824527  0.94463443     0.03600
C2506       C  0.67667768  0.14595902  0.94308779    -0.25200
H2507       H  0.71364409  0.18606245  0.91832656     0.08700
H2508       H  0.68958091  0.17835078  0.93806275     0.12300
H2509       H  0.71442602  0.13359798  0.89841061     0.12200
H2510       H  0.69455242  0.11195756  0.90990022     0.12000
H2511       H  0.67472600  0.10269436  0.93292135     0.12500
H2512       H  0.67203589  0.15521317  0.95271006     0.14500
C2513       C  0.91462323  0.11308794  0.97157776    -0.05500
C2514       C  0.91582076  0.10323934  0.95613010    -0.05500
C2515       C  0.92988226  0.10531901  0.94486335    -0.23600
C2516       C  0.94312608  0.11716899  0.94890902     0.18600
C2517       C  0.94238642  0.12685283  0.96463386     0.15800
C2518       C  0.92802906  0.12483542  0.97586123    -0.18700
C2519       C  0.95589641  0.13853545  0.96863280    -0.20500
C2520       C  0.96967826  0.14097455  0.95689340    -0.13000
C2521       C  0.97006708  0.13184149  0.94096348     0.03600
C2522       C  0.95689060  0.11973653  0.93724087    -0.25200
H2523       H  0.90566143  0.09412289  0.95255175     0.08700
H2524       H  0.93030295  0.09777021  0.93287358     0.12300
H2525       H  0.92725025  0.13240747  0.98781918     0.12200
H2526       H  0.95563262  0.14601846  0.98066202     0.12000
H2527       H  0.97967906  0.15043845  0.95997199     0.12500
H2528       H  0.95711706  0.11256759  0.92500302     0.14500
C2529       C  0.89146504  0.02640117  0.08458599    -0.05500
C2530       C  0.87446973  0.02480022  0.07799010    -0.05500
C2531       C  0.86938190  0.03419383  0.06314985    -0.23600
C2532       C  0.88115000  0.04550904  0.05490425     0.18600
C2533       C  0.89841109  0.04671933  0.06122894     0.15800
C2534       C  0.90349290  0.03696185  0.07576865    -0.18700
C2535       C  0.91011287  0.05836578  0.05351469    -0.20500
C2536       C  0.90453535  0.06944218  0.04025868    -0.13000
C2537       C  0.88733475  0.06868748  0.03412989     0.03600
C2538       C  0.87580237  0.05629127  0.04106579    -0.25200
H2539       H  0.86500732  0.01668516  0.08457773     0.08700
H2540       H  0.85608980  0.03308698  0.05850893     0.12300
H2541       H  0.91667491  0.03825146  0.08071383     0.12200
H2542       H  0.92338994  0.05942125  0.05822770     0.12000
H2543       H  0.91359376  0.07888937  0.03500343     0.12500
H2544       H  0.86244516  0.05582198  0.03648033     0.14500
C2545       C  0.83592961  0.11678404  0.96123929    -0.05500
C2546       C  0.82820884  0.10390383  0.95071236    -0.05500
C2547       C  0.81647837  0.10857629  0.93742174    -0.23600
C2548       C  0.81216606  0.12615463  0.93466795     0.18600
C2549       C  0.81971680  0.13902781  0.94552231     0.15800
C2550       C  0.83156343  0.13428817  0.95851473    -0.18700
C2551       C  0.81530154  0.15652855  0.94332076    -0.20500
C2552       C  0.80353253  0.16137228  0.93040683    -0.13000
C2553       C  0.79610126  0.14886989  0.91923637     0.03600
C2554       C  0.80046781  0.13119309  0.92138482    -0.25200
H2555       H  0.83136632  0.09031362  0.95264650     0.08700
H2556       H  0.81076669  0.09846222  0.92932931     0.12300
H2557       H  0.83729138  0.14434829  0.96668529     0.12200
H2558       H  0.82094696  0.16651222  0.95162581     0.12000
H2559       H  0.80040526  0.17504448  0.92901207     0.12500
H2560       H  0.79467253  0.12144049  0.91290404     0.14500
C2561       C  0.78083584  0.16209507  0.15492400    -0.05500
C2562       C  0.79415776  0.17437096  0.15758892    -0.05500
C2563       C  0.80581549  0.17261819  0.17143733    -0.23600
C2564       C  0.80443134  0.15852349  0.18291709     0.18600
C2565       C  0.79072760  0.14639208  0.18085962     0.15800
C2566       C  0.77893672  0.14828073  0.16686146    -0.18700
C2567       C  0.78949201  0.13231059  0.19249748    -0.20500
C2568       C  0.80217162  0.12984675  0.20546543    -0.13000
C2569       C  0.81623912  0.14145317  0.20700754     0.03600
C2570       C  0.81697275  0.15602895  0.19597813    -0.25200
H2571       H  0.79585524  0.18518247  0.14868086     0.08700
H2572       H  0.81620407  0.18207937  0.17290312     0.12300
H2573       H  0.76865937  0.13876541  0.16497326     0.12200
H2574       H  0.77903683  0.12290048  0.19121954     0.12000
H2575       H  0.80137921  0.11848303  0.21378444     0.12500
H2576       H  0.82775066  0.16510825  0.19707966     0.14500
C2577       C  0.71771226  0.20344771  0.12825557    -0.05500
C2578       C  0.70994189  0.20047228  0.14459143    -0.05500
C2579       C  0.69602204  0.21058516  0.15023576    -0.23600
C2580       C  0.68940373  0.22376918  0.13954583     0.18600
C2581       C  0.69740507  0.22740356  0.12330619     0.15800
C2582       C  0.71172385  0.21729875  0.11780237    -0.18700
C2583       C  0.69047010  0.24061528  0.11267858    -0.20500
C2584       C  0.67544935  0.24963712  0.11784603    -0.13000
C2585       C  0.66718061  0.24561346  0.13372749     0.03600
C2586       C  0.67450559  0.23291392  0.14464807    -0.25200
H2587       H  0.71439269  0.18995804  0.15288442     0.08700
H2588       H  0.69007856  0.20771676  0.16275423     0.12300
H2589       H  0.71755451  0.21958931  0.10510811     0.12200
H2590       H  0.69639637  0.24366880  0.10020345     0.12000
H2591       H  0.67004709  0.25941945  0.10922551     0.12500
H2592       H  0.66830032  0.22973946  0.15697150     0.14500
C2593       C  0.79053357  0.14724156  0.07888889    -0.05500
C2594       C  0.79092149  0.12905478  0.07681792    -0.05500
C2595       C  0.80317902  0.12117085  0.06607218    -0.23600
C2596       C  0.81544434  0.13127157  0.05721481     0.18600
C2597       C  0.81549104  0.14957165  0.05924761     0.15800
C2598       C  0.80289658  0.15751687  0.07003901    -0.18700
C2599       C  0.82810456  0.15945849  0.05037875    -0.20500
C2600       C  0.84030387  0.15128049  0.03945429    -0.13000
C2601       C  0.83993772  0.13313440  0.03714007     0.03600
C2602       C  0.82754648  0.12326003  0.04621554    -0.25200
H2603       H  0.78157080  0.12081736  0.08342284     0.08700
H2604       H  0.80302037  0.10712037  0.06465119     0.12300
H2605       H  0.80274678  0.17155125  0.07158024     0.12200
H2606       H  0.82844131  0.17349980  0.05177278     0.12000
H2607       H  0.84971521  0.15914692  0.03249888     0.12500
H2608       H  0.82720319  0.10922078  0.04460206     0.14500
C2609       C  0.71548623  0.14915129  0.07475829    -0.05500
C2610       C  0.70825435  0.16183412  0.06372707    -0.05500
C2611       C  0.69748551  0.15712416  0.04989391    -0.23600
C2612       C  0.69394822  0.13957723  0.04660620     0.18600
C2613       C  0.70089537  0.12658208  0.05767734     0.15800
C2614       C  0.71148974  0.13147971  0.07193691    -0.18700
C2615       C  0.69745244  0.10899195  0.05392700    -0.20500
C2616       C  0.68745069  0.10440626  0.03924779    -0.13000
C2617       C  0.68062006  0.11735122  0.02823875     0.03600
C2618       C  0.68380765  0.13490062  0.03216197    -0.25200
H2619       H  0.71111070  0.17551347  0.06568277     0.08700
H2620       H  0.69223232  0.16720988  0.04152544     0.12300
H2621       H  0.71716404  0.12161305  0.08029970     0.12200
H2622       H  0.70262664  0.09880639  0.06221863     0.12000
H2623       H  0.68496324  0.09078319  0.03657169     0.12500
H2624       H  0.67854277  0.14501392  0.02381852     0.14500
C2625       C  0.66646457  0.85337039  0.76979256    -0.05500
C2626       C  0.67601654  0.85206932  0.78543310    -0.05500
C2627       C  0.67347696  0.83814741  0.79680836    -0.23600
C2628       C  0.66143241  0.82508858  0.79272810     0.18600
C2629       C  0.65213972  0.82582952  0.77676156     0.15800
C2630       C  0.65459827  0.84008231  0.76541405    -0.18700
C2631       C  0.64037681  0.81243078  0.77264471    -0.20500
C2632       C  0.63736212  0.79886349  0.78451335    -0.13000
C2633       C  0.64590940  0.79856791  0.80076882     0.03600
C2634       C  0.65822537  0.81155294  0.80459908    -0.25200
H2635       H  0.68527977  0.86206710  0.78910304     0.08700
H2636       H  0.68079781  0.83771916  0.80893204     0.12300
H2637       H  0.64725892  0.84087901  0.75331438     0.12200
H2638       H  0.63322908  0.81263720  0.76041436     0.12000
H2639       H  0.62780055  0.78900623  0.78129020     0.12500
H2640       H  0.66499478  0.81139395  0.81706313     0.14500
C2641       C  0.57154759  0.97639454  0.86762072    -0.05500
C2642       C  0.55680638  0.97468390  0.85687013    -0.05500
C2643       C  0.54554722  0.96043799  0.85889782    -0.23600
C2644       C  0.54890171  0.94775378  0.87169791     0.18600
C2645       C  0.56345783  0.94979745  0.88284186     0.15800
C2646       C  0.57449989  0.96410812  0.88083817    -0.18700
C2647       C  0.56705725  0.93727916  0.89559155    -0.20500
C2648       C  0.55629308  0.92283311  0.89742914    -0.13000
C2649       C  0.54168653  0.92059354  0.88657822     0.03600
C2650       C  0.53810366  0.93304778  0.87357440    -0.25200
H2651       H  0.55438701  0.98394776  0.84649398     0.08700
H2652       H  0.53443527  0.95914970  0.85023077     0.12300
H2653       H  0.58582642  0.96534422  0.88924727     0.12200
H2654       H  0.57824322  0.93864156  0.90415201     0.12000
H2655       H  0.55940702  0.91338518  0.90745305     0.12500
H2656       H  0.52687416  0.93140740  0.86511429     0.14500
C2657       C  0.59139321  0.80041971  0.85600977    -0.05500
C2658       C  0.57812554  0.80438775  0.84397639    -0.05500
C2659       C  0.56471273  0.81573788  0.84842932    -0.23600
C2660       C  0.56420266  0.82332113  0.86506798     0.18600
C2661       C  0.57736452  0.81945225  0.87739816     0.15800
C2662       C  0.59097829  0.80805943  0.87275651    -0.18700
C2663       C  0.57657710  0.82703373  0.89411935    -0.20500
C2664       C  0.56293565  0.83834288  0.89851568    -0.13000
C2665       C  0.54998006  0.84237396  0.88620098     0.03600
C2666       C  0.55072065  0.83475075  0.86951103    -0.25200
H2667       H  0.57811002  0.79870699  0.83099998     0.08700
H2668       H  0.55470325  0.81856045  0.83884148     0.12300
H2669       H  0.60110073  0.80504167  0.88216274     0.12200
H2670       H  0.58651982  0.82424256  0.90378141     0.12000
H2671       H  0.56266595  0.84415320  0.91142029     0.12500
H2672       H  0.54074493  0.83770709  0.85991517     0.14500
C2673       C  0.55967344  0.67812769  0.87895775    -0.05500
C2674       C  0.56979681  0.68641762  0.89181604    -0.05500
C2675       C  0.58223820  0.69876285  0.88730334    -0.23600
C2676       C  0.58466377  0.70337626  0.86980395     0.18600
C2677       C  0.57491442  0.69497819  0.85654228     0.15800
C2678       C  0.56254838  0.68212853  0.86119201    -0.18700
C2679       C  0.57740192  0.70007068  0.83904449    -0.20500
C2680       C  0.58900907  0.71362295  0.83488898    -0.13000
C2681       C  0.59839664  0.72219839  0.84815357     0.03600
C2682       C  0.59633755  0.71669571  0.86552510    -0.25200
H2683       H  0.56791328  0.68348131  0.90553627     0.08700
H2684       H  0.58966341  0.70506138  0.89760366     0.12300
H2685       H  0.55469797  0.67589406  0.85117970     0.12200
H2686       H  0.57010036  0.69384402  0.82862656     0.12000
H2687       H  0.59038016  0.71762191  0.82138803     0.12500
H2688       H  0.60352722  0.72313819  0.87591515     0.14500
C2689       C  0.42829670  0.79806077  0.86881933    -0.05500
C2690       C  0.43161649  0.79978329  0.88681545    -0.05500
C2691       C  0.44300319  0.81250950  0.89297650    -0.23600
C2692       C  0.45118408  0.82383346  0.88125216     0.18600
C2693       C  0.44742234  0.82276029  0.86317855     0.15800
C2694       C  0.43600539  0.80979844  0.85704311    -0.18700
C2695       C  0.45550353  0.83440008  0.85158490    -0.20500
C2696       C  0.46770263  0.84650509  0.85777620    -0.13000
C2697       C  0.47202481  0.84702953  0.87560747     0.03600
C2698       C  0.46342234  0.83589989  0.88730304    -0.25200
H2699       H  0.42575625  0.79094828  0.89614175     0.08700
H2700       H  0.44566562  0.81327492  0.90688603     0.12300
H2701       H  0.43334651  0.80867049  0.84315385     0.12200
H2702       H  0.45267008  0.83389097  0.83770293     0.12000
H2703       H  0.47414680  0.85505211  0.84858089     0.12500
H2704       H  0.46650366  0.83638926  0.90114956     0.14500
C2705       C  0.42917383  0.72015364  0.87585985    -0.05500
C2706       C  0.42810220  0.71447797  0.89329685    -0.05500
C2707       C  0.44072330  0.70304288  0.90008056    -0.23600
C2708       C  0.45447526  0.69711644  0.88946558     0.18600
C2709       C  0.45517515  0.70258014  0.87183402     0.15800
C2710       C  0.44262798  0.71389144  0.86524554    -0.18700
C2711       C  0.46853827  0.69685218  0.86092268    -0.20500
C2712       C  0.48122076  0.68572232  0.86729434    -0.13000
C2713       C  0.48093921  0.68010208  0.88475509     0.03600
C2714       C  0.46754836  0.68590591  0.89594220    -0.25200
H2715       H  0.41781901  0.71918336  0.90172676     0.08700
H2716       H  0.43983565  0.69898959  0.91362708     0.12300
H2717       H  0.44350349  0.71801603  0.85170030     0.12200
H2718       H  0.46920481  0.70100046  0.84738502     0.12000
H2719       H  0.49140478  0.68155911  0.85845628     0.12500
H2720       H  0.46719023  0.68156515  0.90943058     0.14500
C2721       C  0.30125209  0.82172592  0.87462166    -0.05500
C2722       C  0.30112609  0.80655892  0.88487012    -0.05500
C2723       C  0.31379799  0.79368283  0.88240242    -0.23600
C2724       C  0.32680238  0.79583764  0.86970010     0.18600
C2725       C  0.32661292  0.81084934  0.85902033     0.15800
C2726       C  0.31387195  0.82358868  0.86151011    -0.18700
C2727       C  0.33945520  0.81316805  0.84629804    -0.20500
C2728       C  0.35270667  0.80098367  0.84444722    -0.13000
C2729       C  0.35345328  0.78627129  0.85533445     0.03600
C2730       C  0.34026839  0.78358086  0.86778449    -0.25200
H2731       H  0.29152647  0.80487255  0.89507868     0.08700
H2732       H  0.31365954  0.78224078  0.89068422     0.12300
H2733       H  0.31410707  0.83523973  0.85350582     0.12200
H2734       H  0.33945447  0.82459967  0.83798995     0.12000
H2735       H  0.36270358  0.80338026  0.83477517     0.12500
H2736       H  0.34073160  0.77225652  0.87622662     0.14500
C2737       C  0.17740835  0.89280968  0.95393451    -0.05500
C2738       C  0.17686486  0.87510152  0.94935301    -0.05500
C2739       C  0.19007848  0.86784169  0.93903070    -0.23600
C2740       C  0.20401209  0.87819287  0.93324648     0.18600
C2741       C  0.20424898  0.89612353  0.93743476     0.15800
C2742       C  0.19094447  0.90327558  0.94755865    -0.18700
C2743       C  0.21799168  0.90663122  0.93177521    -0.20500
C2744       C  0.23150661  0.89947352  0.92207902    -0.13000
C2745       C  0.23156465  0.88167256  0.91785955     0.03600
C2746       C  0.21777587  0.87102060  0.92349812    -0.25200
H2747       H  0.16651046  0.86681295  0.95412087     0.08700
H2748       H  0.18958310  0.85408573  0.93586704     0.12300
H2749       H  0.19142077  0.91700712  0.95088924     0.12200
H2750       H  0.21833224  0.92040214  0.93491431     0.12000
H2751       H  0.24197775  0.90792422  0.91786057     0.12500
H2752       H  0.21766240  0.85729545  0.92013881     0.14500
C2753       C  0.17612538  0.90632553  0.03258344    -0.05500
C2754       C  0.18555884  0.91940731  0.04134024    -0.05500
C2755       C  0.19739026  0.91508409  0.05470231    -0.23600
C2756       C  0.20006072  0.89759932  0.05945608     0.18600
C2757       C  0.19038984  0.88447356  0.05082825     0.15800
C2758       C  0.17851708  0.88891208  0.03764618    -0.18700
C2759       C  0.19300292  0.86698923  0.05517329    -0.20500
C2760       C  0.20547302  0.86240032  0.06754671    -0.13000
C2761       C  0.21547781  0.87516654  0.07606548     0.03600
C2762       C  0.21247594  0.89286862  0.07226156    -0.25200
H2763       H  0.18398033  0.93292103  0.03768029     0.08700
H2764       H  0.20465993  0.92538895  0.06110845     0.12300
H2765       H  0.17135997  0.87864560  0.03102838     0.12200
H2766       H  0.18564594  0.85678337  0.04870069     0.12000
H2767       H  0.20745729  0.84872028  0.07032193     0.12500
H2768       H  0.22022641  0.90281398  0.07868522     0.14500
C2769       C  0.42984912  0.89917007  0.97979304    -0.05500
C2770       C  0.44105483  0.88551944  0.98447830    -0.05500
C2771       C  0.45565634  0.88165236  0.97429588    -0.23600
C2772       C  0.45923425  0.89128139  0.95914602     0.18600
C2773       C  0.44819295  0.90524816  0.95449100     0.15800
C2774       C  0.43367790  0.90919298  0.96490660    -0.18700
C2775       C  0.45157166  0.91471692  0.93921828    -0.20500
C2776       C  0.46545561  0.91009762  0.92839783    -0.13000
C2777       C  0.47637297  0.89605859  0.93271543     0.03600
C2778       C  0.47334729  0.88686486  0.94830848    -0.25200
H2779       H  0.43837656  0.87763214  0.99589064     0.08700
H2780       H  0.46395236  0.87090777  0.97808220     0.12300
H2781       H  0.42508513  0.91972340  0.96111794     0.12200
H2782       H  0.44324724  0.92544896  0.93542920     0.12000
H2783       H  0.46746131  0.91734907  0.91642925     0.12500
H2784       H  0.48155202  0.87590208  0.95167158     0.14500
C2785       C  0.35318664  0.89352316  0.96419611    -0.05500
C2786       C  0.35042623  0.87554549  0.96212456    -0.05500
C2787       C  0.33954651  0.86923819  0.94909388    -0.23600
C2788       C  0.33117979  0.88076582  0.93779339     0.18600
C2789       C  0.33405175  0.89889747  0.93931139     0.15800
C2790       C  0.34505192  0.90524060  0.95265527    -0.18700
C2791       C  0.32557494  0.91021582  0.92764245    -0.20500
C2792       C  0.31385475  0.90362615  0.91516426    -0.13000
C2793       C  0.31044199  0.88568472  0.91433584     0.03600
C2794       C  0.31953252  0.87435013  0.92535955    -0.25200
H2795       H  0.35650013  0.86622914  0.97081826     0.08700
H2796       H  0.33747295  0.85531082  0.94802929     0.12300
H2797       H  0.34716517  0.91912513  0.95412413     0.12200
H2798       H  0.32766610  0.92414742  0.92845737     0.12000
H2799       H  0.30691360  0.91256107  0.90673755     0.12500
H2800       H  0.31710539  0.86044166  0.92463073     0.14500
C2801       C  0.34878107  0.88169127  0.03787331    -0.05500
C2802       C  0.35051615  0.86455263  0.04409732    -0.05500
C2803       C  0.33716798  0.85694224  0.05413210    -0.23600
C2804       C  0.32196157  0.86639867  0.05804572     0.18600
C2805       C  0.32028828  0.88352603  0.05151594     0.15800
C2806       C  0.33354661  0.89093012  0.04160109    -0.18700
C2807       C  0.30543099  0.89328122  0.05510224    -0.20500
C2808       C  0.29240475  0.88644340  0.06552566    -0.13000
C2809       C  0.29382486  0.86965113  0.07259927     0.03600
C2810       C  0.30853376  0.85941187  0.06856774    -0.25200
H2811       H  0.36210893  0.85709649  0.04120654     0.08700
H2812       H  0.33877879  0.84375848  0.05890815     0.12300
H2813       H  0.33195102  0.90412679  0.03681781     0.12200
H2814       H  0.30398432  0.90638946  0.05006172     0.12000
H2815       H  0.28119528  0.89452564  0.06826892     0.12500
H2816       H  0.30977638  0.84644814  0.07402963     0.14500
C2817       C  0.13142640  0.95586323  0.95636258    -0.05500
C2818       C  0.14270904  0.97012820  0.95434932    -0.05500
C2819       C  0.14063985  0.98167542  0.94030067    -0.23600
C2820       C  0.12723755  0.97916057  0.92803484     0.18600
C2821       C  0.11542328  0.96524346  0.93041741     0.15800
C2822       C  0.11752619  0.95380511  0.94456875    -0.18700
C2823       C  0.10202528  0.96260498  0.91827066    -0.20500
C2824       C  0.10053361  0.97337804  0.90366541    -0.13000
C2825       C  0.11231617  0.98712870  0.90090624     0.03600
C2826       C  0.12560309  0.99005657  0.91328118    -0.25200
H2827       H  0.15356850  0.97193083  0.96320656     0.08700
H2828       H  0.14980107  0.99230043  0.93877414     0.12300
H2829       H  0.10869304  0.94287792  0.94602108     0.12200
H2830       H  0.09282068  0.95202976  0.91992711     0.12000
H2831       H  0.09010403  0.97088397  0.89445410     0.12500
H2832       H  0.13472502  0.00065553  0.91135786     0.14500
C2833       C  0.06452080  0.04657461  0.87767475    -0.05500
C2834       C  0.06576469  0.05187423  0.89522051    -0.05500
C2835       C  0.05538819  0.06528281  0.90164553    -0.23600
C2836       C  0.04372755  0.07386377  0.89055820     0.18600
C2837       C  0.04170335  0.06816418  0.87306735     0.15800
C2838       C  0.05195923  0.05430161  0.86676844    -0.18700
C2839       C  0.03015477  0.07707188  0.86200601    -0.20500
C2840       C  0.02131977  0.09187656  0.86800716    -0.13000
C2841       C  0.02378490  0.09793402  0.88519415     0.03600
C2842       C  0.03469131  0.08855940  0.89651013    -0.25200
H2843       H  0.07531999  0.04606948  0.90384967     0.08700
H2844       H  0.05703157  0.06943225  0.91509819     0.12300
H2845       H  0.05106065  0.05042017  0.85315848     0.12200
H2846       H  0.02837453  0.07292790  0.84856996     0.12000
H2847       H  0.01293933  0.09886782  0.85905630     0.12500
H2848       H  0.03667053  0.09307026  0.90981021     0.14500
C2849       C  0.15122212  0.84716161  0.73178130    -0.05500
C2850       C  0.13493968  0.83939731  0.73492736    -0.05500
C2851       C  0.12950378  0.82488728  0.72515173    -0.23600
C2852       C  0.14023382  0.81797218  0.71199939     0.18600
C2853       C  0.15676374  0.82555952  0.70910064     0.15800
C2854       C  0.16215318  0.83992399  0.71903309    -0.18700
C2855       C  0.16753043  0.81903177  0.69592641    -0.20500
C2856       C  0.16184235  0.80547133  0.68528760    -0.13000
C2857       C  0.14534385  0.79796890  0.68766041     0.03600
C2858       C  0.13464131  0.80401962  0.70132322    -0.25200
H2859       H  0.12625072  0.84478648  0.74466425     0.08700
H2860       H  0.11678013  0.81932182  0.72762170     0.12300
H2861       H  0.17472404  0.84580700  0.71643895     0.12200
H2862       H  0.18023585  0.82469371  0.69356316     0.12000
H2863       H  0.17033040  0.80101131  0.67491643     0.12500
H2864       H  0.12181188  0.79842355  0.70314556     0.14500
C2865       C  0.20658425  0.88522034  0.78724972    -0.05500
C2866       C  0.22092634  0.89656170  0.78816513    -0.05500
C2867       C  0.23314278  0.89501117  0.80173691    -0.23600
C2868       C  0.23123406  0.88204232  0.81453864     0.18600
C2869       C  0.21712202  0.87027739  0.81329603     0.15800
C2870       C  0.20498497  0.87193292  0.79972645    -0.18700
C2871       C  0.21508235  0.85723929  0.82587630    -0.20500
C2872       C  0.22671175  0.85599383  0.83979163    -0.13000
C2873       C  0.24063109  0.86776973  0.84147599     0.03600
C2874       C  0.24293455  0.88074513  0.82869417    -0.25200
H2875       H  0.22236999  0.90696745  0.77874065     0.08700
H2876       H  0.24388926  0.90413887  0.80239706     0.12300
H2877       H  0.19399961  0.86307113  0.79912859     0.12200
H2878       H  0.20434314  0.84810531  0.82507687     0.12000
H2879       H  0.22462410  0.84588615  0.84942365     0.12500
H2880       H  0.25362338  0.88989765  0.82987077     0.14500
C2881       C  0.14006547  0.92844567  0.78739535    -0.05500
C2882       C  0.12389447  0.92467184  0.79507136    -0.05500
C2883       C  0.11539903  0.93714337  0.80539075    -0.23600
C2884       C  0.12297717  0.95356320  0.80821042     0.18600
C2885       C  0.13931136  0.95732293  0.80058543     0.15800
C2886       C  0.14768905  0.94480886  0.79029113    -0.18700
C2887       C  0.14711728  0.97354257  0.80340287    -0.20500
C2888       C  0.13902706  0.98585760  0.81398736    -0.13000
C2889       C  0.12288915  0.98231682  0.82182330     0.03600
C2890       C  0.11472432  0.96620847  0.81868478    -0.25200
H2891       H  0.11775630  0.91214752  0.79296881     0.08700
H2892       H  0.10292624  0.93395575  0.81114459     0.12300
H2893       H  0.16017276  0.94787245  0.78446791     0.12200
H2894       H  0.15960273  0.97662505  0.79761793     0.12000
H2895       H  0.14552684  0.99819332  0.81620484     0.12500
H2896       H  0.10236168  0.96332333  0.82483987     0.14500
C2897       C  0.03314166  0.91734062  0.59821263    -0.05500
C2898       C  0.04537040  0.92219485  0.58545703    -0.05500
C2899       C  0.05572531  0.93693029  0.58770610    -0.23600
C2900       C  0.05410008  0.94711391  0.60279899     0.18600
C2901       C  0.04139860  0.94283166  0.61545727     0.15800
C2902       C  0.03093730  0.92794282  0.61307384    -0.18700
C2903       C  0.03980951  0.95323485  0.63049220    -0.20500
C2904       C  0.05119609  0.96723139  0.63328904    -0.13000
C2905       C  0.06439390  0.97093449  0.62116251     0.03600
C2906       C  0.06546249  0.96109627  0.60572557    -0.25200
H2907       H  0.04721163  0.91436121  0.57381574     0.08700
H2908       H  0.06530133  0.94011722  0.57782508     0.12300
H2909       H  0.02151322  0.92434827  0.62296600     0.12200
H2910       H  0.03011970  0.95023972  0.64031651     0.12000
H2911       H  0.05024799  0.97459554  0.64533918     0.12500
H2912       H  0.07559228  0.96391445  0.59628094     0.14500
C2913       C  0.12275178  0.96405171  0.66855802    -0.05500
C2914       C  0.11022216  0.95697907  0.67986465    -0.05500
C2915       C  0.11483544  0.94466448  0.69231875    -0.23600
C2916       C  0.13215256  0.93935899  0.69391604     0.18600
C2917       C  0.14491201  0.94596474  0.68238318     0.15800
C2918       C  0.14006391  0.95816002  0.66951158    -0.18700
C2919       C  0.16230534  0.94067770  0.68443043    -0.20500
C2920       C  0.16704138  0.92953676  0.69818342    -0.13000
C2921       C  0.15438863  0.92332242  0.70987204     0.03600
C2922       C  0.13692413  0.92799522  0.70732538    -0.25200
H2923       H  0.09677146  0.96114457  0.67921857     0.08700
H2924       H  0.10491520  0.93963835  0.70102930     0.12300
H2925       H  0.14979987  0.96355941  0.66080261     0.12200
H2926       H  0.17230325  0.94552284  0.67570041     0.12000
H2927       H  0.18056829  0.92600033  0.69983766     0.12500
H2928       H  0.12700482  0.92327234  0.71622366     0.14500
C2929       C  0.14576999  0.17518090  0.76216394    -0.05500
C2930       C  0.12963958  0.18317808  0.75895628    -0.05500
C2931       C  0.12449167  0.19780010  0.76866288    -0.23600
C2932       C  0.13533054  0.20452506  0.78186008     0.18600
C2933       C  0.15189222  0.19696525  0.78455376     0.15800
C2934       C  0.15704126  0.18253257  0.77461534    -0.18700
C2935       C  0.16276795  0.20338437  0.79775133    -0.20500
C2936       C  0.15689462  0.21640252  0.80896183    -0.13000
C2937       C  0.14013761  0.22347142  0.80708710     0.03600
C2938       C  0.12961029  0.21798738  0.79303239    -0.25200
H2939       H  0.12080179  0.17783807  0.74929109     0.08700
H2940       H  0.11180847  0.20344404  0.76627755     0.12300
H2941       H  0.16957580  0.17658105  0.77712002     0.12200
H2942       H  0.17554081  0.19782972  0.79988962     0.12000
H2943       H  0.16530801  0.22053656  0.81956590     0.12500
H2944       H  0.11665657  0.22332118  0.79151567     0.14500
C2945       C  0.12098636  0.06049253  0.82850012    -0.05500
C2946       C  0.10808024  0.07087246  0.82073222    -0.05500
C2947       C  0.11239281  0.08324316  0.80811502    -0.23600
C2948       C  0.12969144  0.08524361  0.80272438     0.18600
C2949       C  0.14293039  0.07532418  0.81081156     0.15800
C2950       C  0.13851917  0.06316324  0.82391070    -0.18700
C2951       C  0.16019810  0.07726572  0.80509373    -0.20500
C2952       C  0.16420859  0.08851362  0.79120580    -0.13000
C2953       C  0.15103437  0.09806667  0.78283453     0.03600
C2954       C  0.13383306  0.09655269  0.78893494    -0.25200
H2955       H  0.09451241  0.06907722  0.82412030     0.08700
H2956       H  0.10209289  0.09081091  0.80211429     0.12300
H2957       H  0.14853476  0.05508291  0.82971976     0.12200
H2958       H  0.17055324  0.06978785  0.81109793     0.12000
H2959       H  0.17754507  0.08946209  0.78677278     0.12500
H2960       H  0.12352361  0.10389572  0.78265774     0.14500
C2961       C  0.14271217  0.09339410  0.70225117    -0.05500
C2962       C  0.15577308  0.08499597  0.69260791    -0.05500
C2963       C  0.15168059  0.07164788  0.68100602    -0.23600
C2964       C  0.13442092  0.06624256  0.67895992     0.18600
C2965       C  0.12099288  0.07474221  0.68827407     0.15800
C2966       C  0.12520877  0.08850181  0.69979600    -0.18700
C2967       C  0.10374013  0.06899490  0.68611908    -0.20500
C2968       C  0.09994866  0.05487556  0.67504016    -0.13000
C2969       C  0.11335419  0.04628356  0.66599900     0.03600
C2970       C  0.13052254  0.05220202  0.66795436    -0.25200
H2971       H  0.16930497  0.08865813  0.69420571     0.08700
H2972       H  0.16208375  0.06530698  0.67389265     0.12300
H2973       H  0.11507655  0.09486950  0.70728614     0.12200
H2974       H  0.09323233  0.07527123  0.69313721     0.12000
H2975       H  0.08660827  0.05050309  0.67376094     0.12500
H2976       H  0.14097826  0.04572750  0.66102297     0.14500
C2977       C  0.55171821  0.62922451  0.93800202    -0.05500
C2978       C  0.55826480  0.61219629  0.93710308    -0.05500
C2979       C  0.57119950  0.60668745  0.94861943    -0.23600
C2980       C  0.57815898  0.61828072  0.96093186     0.18600
C2981       C  0.57125882  0.63527608  0.96242194     0.15800
C2982       C  0.55780264  0.64056077  0.95111504    -0.18700
C2983       C  0.57859356  0.64691385  0.97455267    -0.20500
C2984       C  0.59321348  0.64206989  0.98437173    -0.13000
C2985       C  0.60056269  0.62544796  0.98236453     0.03600
C2986       C  0.59254103  0.61342747  0.97107258    -0.25200
H2987       H  0.55364324  0.60324342  0.92716890     0.08700
H2988       H  0.57628945  0.59358406  0.94738046     0.12300
H2989       H  0.55287518  0.65376716  0.95178174     0.12200
H2990       H  0.57345081  0.65997092  0.97595437     0.12000
H2991       H  0.59910330  0.65150359  0.99309939     0.12500
H2992       H  0.59801824  0.60050901  0.96950269     0.14500
C2993       C  0.62996855  0.57499637  0.03899516    -0.05500
C2994       C  0.61453876  0.57822830  0.04827145    -0.05500
C2995       C  0.60889875  0.56680115  0.06127816    -0.23600
C2996       C  0.61878133  0.55207474  0.06551926     0.18600
C2997       C  0.63426456  0.54856981  0.05618387     0.15800
C2998       C  0.63965880  0.55994534  0.04279818    -0.18700
C2999       C  0.64427485  0.53398234  0.06071540    -0.20500
C3000       C  0.63918112  0.52318995  0.07455439    -0.13000
C3001       C  0.62392973  0.52669552  0.08404747     0.03600
C3002       C  0.61365332  0.54106524  0.07924755    -0.25200
H3003       H  0.60685158  0.58971616  0.04551864     0.08700
H3004       H  0.59699520  0.56968741  0.06827418     0.12300
H3005       H  0.65166197  0.55744897  0.03582018     0.12200
H3006       H  0.65618669  0.53108227  0.05375646     0.12000
H3007       H  0.64732157  0.51221143  0.07798736     0.12500
H3008       H  0.60187465  0.54394592  0.08646852     0.14500
C3009       C  0.77776382  0.64294847  0.83218026    -0.05500
C3010       C  0.77656281  0.62647203  0.82424984    -0.05500
C3011       C  0.78738216  0.62216878  0.81010249    -0.23600
C3012       C  0.79957363  0.63426938  0.80374970     0.18600
C3013       C  0.80034854  0.65103694  0.81135696     0.15800
C3014       C  0.78940229  0.65526055  0.82533008    -0.18700
C3015       C  0.81258914  0.66315119  0.80540683    -0.20500
C3016       C  0.82463867  0.65845423  0.79266676    -0.13000
C3017       C  0.82444773  0.64169604  0.78534277     0.03600
C3018       C  0.81151612  0.62976482  0.79051794    -0.25200
H3019       H  0.76766337  0.61678091  0.82931333     0.08700
H3020       H  0.78655407  0.60923864  0.80445933     0.12300
H3021       H  0.79035724  0.66806802  0.83126050     0.12200
H3022       H  0.81327766  0.67607814  0.81108590     0.12000
H3023       H  0.83445348  0.66782480  0.78883290     0.12500
H3024       H  0.81142267  0.61673025  0.78504520     0.14500
C3025       C  0.72484481  0.69927799  0.85997775    -0.05500
C3026       C  0.71972249  0.69984011  0.84236152    -0.05500
C3027       C  0.70697067  0.71147009  0.83677150    -0.23600
C3028       C  0.69878932  0.72251925  0.84878735     0.18600
C3029       C  0.70433754  0.72272444  0.86642987     0.15800
C3030       C  0.71760903  0.71125208  0.87189058    -0.18700
C3031       C  0.69582828  0.73371732  0.87838517    -0.20500
C3032       C  0.68149279  0.74373347  0.87307392    -0.13000
C3033       C  0.67549776  0.74298380  0.85570585     0.03600
C3034       C  0.68457170  0.73269456  0.84356025    -0.25200
H3035       H  0.72516912  0.69077605  0.83299107     0.08700
H3036       H  0.70294288  0.71124688  0.82317915     0.12300
H3037       H  0.72136483  0.71076004  0.88556282     0.12200
H3038       H  0.69988712  0.73413166  0.89196734     0.12000
H3039       H  0.67475489  0.75160652  0.88266121     0.12500
H3040       H  0.68015673  0.73207574  0.83009211     0.14500
C3041       C  0.71080754  0.64096339  0.90832337    -0.05500
C3042       C  0.69964507  0.65409937  0.91433719    -0.05500
C3043       C  0.68775228  0.65078381  0.92763401    -0.23600
C3044       C  0.68710636  0.63434897  0.93547270     0.18600
C3045       C  0.69786972  0.62078306  0.92922100     0.15800
C3046       C  0.70951985  0.62410474  0.91537914    -0.18700
C3047       C  0.69729579  0.60446225  0.93750576    -0.20500
C3048       C  0.68660126  0.60184381  0.95215097    -0.13000
C3049       C  0.67629113  0.61548728  0.95865868     0.03600
C3050       C  0.67636534  0.63156576  0.94996096    -0.25200
H3051       H  0.70050288  0.66715306  0.90905207     0.08700
H3052       H  0.67954906  0.66128501  0.93226506     0.12300
H3053       H  0.71831640  0.61400322  0.91094249     0.12200
H3054       H  0.70543877  0.59388312  0.93295272     0.12000
H3055       H  0.68672953  0.58932840  0.95864466     0.12500
H3056       H  0.66839544  0.64216899  0.95478991     0.14500
C3057       C  0.88761288  0.56896318  0.96414464    -0.05500
C3058       C  0.90444447  0.57014672  0.95710908    -0.05500
C3059       C  0.90984750  0.55881838  0.94394650    -0.23600
C3060       C  0.89842091  0.54621711  0.93733759     0.18600
C3061       C  0.88162381  0.54442720  0.94464464     0.15800
C3062       C  0.87637752  0.55569083  0.95823804    -0.18700
C3063       C  0.87018294  0.53192888  0.93765558    -0.20500
C3064       C  0.87512777  0.52181698  0.92319042    -0.13000
C3065       C  0.89162433  0.52395528  0.91556589     0.03600
C3066       C  0.90332970  0.53591074  0.92303124    -0.25200
H3067       H  0.91332891  0.58021815  0.96147060     0.08700
H3068       H  0.92277356  0.56032345  0.93851209     0.12300
H3069       H  0.86331019  0.55478484  0.96346621     0.12200
H3070       H  0.85724897  0.53033781  0.94303314     0.12000
H3071       H  0.86585846  0.51272573  0.91763403     0.12500
H3072       H  0.91609444  0.53769513  0.91728517     0.14500
C3073       C  0.84080261  0.63104702  0.95403934    -0.05500
C3074       C  0.84277847  0.64809544  0.94767810    -0.05500
C3075       C  0.83092250  0.65485150  0.93540701    -0.23600
C3076       C  0.81692407  0.64465461  0.92933976     0.18600
C3077       C  0.81526127  0.62736293  0.93540995     0.15800
C3078       C  0.82715164  0.62072910  0.94754361    -0.18700
C3079       C  0.80152804  0.61694476  0.92953028    -0.20500
C3080       C  0.78933957  0.62357156  0.91786504    -0.13000
C3081       C  0.79051392  0.64079884  0.91179466     0.03600
C3082       C  0.80444923  0.65134480  0.91752451    -0.25200
H3083       H  0.85321266  0.65629664  0.95247543     0.08700
H3084       H  0.83254042  0.66811769  0.93088163     0.12300
H3085       H  0.82551221  0.60750231  0.95222126     0.12200
H3086       H  0.80011667  0.60365350  0.93407025     0.12000
H3087       H  0.77880855  0.61514201  0.91369857     0.12500
H3088       H  0.80555316  0.66461945  0.91285753     0.14500
C3089       C  0.73913980  0.65744915  0.15657220    -0.05500
C3090       C  0.74484196  0.64264786  0.16571878    -0.05500
C3091       C  0.73491107  0.63575371  0.17944780    -0.23600
C3092       C  0.71901720  0.64345437  0.18414386     0.18600
C3093       C  0.71326395  0.65834827  0.17493987     0.15800
C3094       C  0.72335659  0.66526361  0.16136731    -0.18700
C3095       C  0.69734929  0.66600820  0.17925155    -0.20500
C3096       C  0.68703334  0.65888870  0.19236745    -0.13000
C3097       C  0.69242580  0.64404466  0.20162182     0.03600
C3098       C  0.70860608  0.63644407  0.19761333    -0.25200
H3099       H  0.75693986  0.63635041  0.16219405     0.08700
H3100       H  0.73956819  0.62430565  0.18625599     0.12300
H3101       H  0.71872849  0.67659888  0.15431089     0.12200
H3102       H  0.69275355  0.67742100  0.17232239     0.12000
H3103       H  0.67468481  0.66503103  0.19523672     0.12500
H3104       H  0.71283079  0.62491652  0.20458849     0.14500
C3105       C  0.72460146  0.66607284  0.07913723    -0.05500
C3106       C  0.71459090  0.67871961  0.07049133    -0.05500
C3107       C  0.70175255  0.67368839  0.05835478    -0.23600
C3108       C  0.69881385  0.65595721  0.05469628     0.18600
C3109       C  0.70886109  0.64330287  0.06350546     0.15800
C3110       C  0.72145148  0.64841070  0.07564405    -0.18700
C3111       C  0.70639875  0.62562768  0.05994186    -0.20500
C3112       C  0.69414760  0.62039624  0.04764124    -0.13000
C3113       C  0.68388198  0.63267423  0.03879390     0.03600
C3114       C  0.68617897  0.65053829  0.04240520    -0.25200
H3115       H  0.71682506  0.69242274  0.07295408     0.08700
H3116       H  0.69424556  0.68363767  0.05173944     0.12300
H3117       H  0.72902335  0.63848074  0.08224406     0.12200
H3118       H  0.71404455  0.61580907  0.06660645     0.12000
H3119       H  0.69257390  0.60659164  0.04518422     0.12500
H3120       H  0.67836476  0.66010528  0.03557188     0.14500
C3121       C  0.80162866  0.65761127  0.07869401    -0.05500
C3122       C  0.81176194  0.66965034  0.06938845    -0.05500
C3123       C  0.82291669  0.66409146  0.05616946    -0.23600
C3124       C  0.82386338  0.64641468  0.05177721     0.18600
C3125       C  0.81377457  0.63412169  0.06106185     0.15800
C3126       C  0.80286899  0.63978999  0.07468982    -0.18700
C3127       C  0.81458543  0.61647474  0.05629292    -0.20500
C3128       C  0.82533692  0.61107733  0.04251242    -0.13000
C3129       C  0.83546575  0.62325022  0.03333826     0.03600
C3130       C  0.83461595  0.64090323  0.03809618    -0.25200
H3131       H  0.81096384  0.68343487  0.07229272     0.08700
H3132       H  0.83058251  0.67366941  0.04916263     0.12300
H3133       H  0.79488944  0.63046826  0.08170801     0.12200
H3134       H  0.80686844  0.60685434  0.06318764     0.12000
H3135       H  0.82578110  0.59741547  0.03907147     0.12500
H3136       H  0.84236789  0.65044944  0.03112731     0.14500
C3137       C  0.16854665  0.23233366  0.34949894    -0.05500
C3138       C  0.16938133  0.21768865  0.33847021    -0.05500
C3139       C  0.18230290  0.20514984  0.34066855    -0.23600
C3140       C  0.19479286  0.20703017  0.35387518     0.18600
C3141       C  0.19436558  0.22183298  0.36489058     0.15800
C3142       C  0.18117510  0.23438358  0.36269579    -0.18700
C3143       C  0.20703619  0.22367161  0.37800541    -0.20500
C3144       C  0.21978221  0.21086184  0.38035953    -0.13000
C3145       C  0.22003613  0.19593974  0.36971696     0.03600
C3146       C  0.20754383  0.19420425  0.35638261    -0.25200
H3147       H  0.15981375  0.21573773  0.32824296     0.08700
H3148       H  0.18244223  0.19389796  0.33209373     0.12300
H3149       H  0.18065572  0.24560085  0.37130455     0.12200
H3150       H  0.20696896  0.23491559  0.38658230     0.12000
H3151       H  0.22916841  0.21241180  0.39081853     0.12500
H3152       H  0.20754242  0.18270637  0.34812517     0.14500
C3153       C  0.04471991  0.13436401  0.44234324    -0.05500
C3154       C  0.04683474  0.14373402  0.45798940    -0.05500
C3155       C  0.06047619  0.13971009  0.46946069    -0.23600
C3156       C  0.07213510  0.12621798  0.46546858     0.18600
C3157       C  0.06962965  0.11634935  0.45004288     0.15800
C3158       C  0.05596390  0.12044562  0.43866960    -0.18700
C3159       C  0.08108445  0.10279157  0.44598623    -0.20500
C3160       C  0.09509562  0.09915853  0.45696345    -0.13000
C3161       C  0.09799997  0.10907525  0.47215787     0.03600
C3162       C  0.08639759  0.12257089  0.47641567    -0.25200
H3163       H  0.03831892  0.15453000  0.46105417     0.08700
H3164       H  0.06211502  0.14737031  0.48127209     0.12300
H3165       H  0.05438074  0.11305100  0.42666104     0.12200
H3166       H  0.07932374  0.09510289  0.43419797     0.12000
H3167       H  0.10387646  0.08874520  0.45336873     0.12500
H3168       H  0.08852295  0.13026508  0.48813494     0.14500
C3169       C  0.12392087  0.06167480  0.53444370    -0.05500
C3170       C  0.10720620  0.06381714  0.54146923    -0.05500
C3171       C  0.10180234  0.05395493  0.55572841    -0.23600
C3172       C  0.11318109  0.04202896  0.56348091     0.18600
C3173       C  0.12982881  0.03918841  0.55616463     0.15800
C3174       C  0.13502238  0.04886998  0.54142016    -0.18700
C3175       C  0.14119713  0.02736144  0.56428030    -0.20500
C3176       C  0.13636458  0.01906427  0.57987413    -0.13000
C3177       C  0.12005088  0.02237035  0.58746997     0.03600
C3178       C  0.10838372  0.03351439  0.57889914    -0.25200
H3179       H  0.09846432  0.07355534  0.53621991     0.08700
H3180       H  0.08897142  0.05618596  0.56113977     0.12300
H3181       H  0.14801194  0.04728274  0.53614675     0.12200
H3182       H  0.15398849  0.02492949  0.55886612     0.12000
H3183       H  0.14551349  0.01038666  0.58618815     0.12500
H3184       H  0.09571150  0.03607134  0.58455776     0.14500
C3185       C  0.17381756  0.10490420  0.45738371    -0.05500
C3186       C  0.18631417  0.09252705  0.45240992    -0.05500
C3187       C  0.19799690  0.09612780  0.43880031    -0.23600
C3188       C  0.19731537  0.11215079  0.42998268     0.18600
C3189       C  0.18428843  0.12433233  0.43456502     0.15800
C3190       C  0.17265075  0.12059553  0.44810034    -0.18700
C3191       C  0.18354802  0.14043948  0.42609347    -0.20500
C3192       C  0.19621892  0.14493488  0.41393697    -0.13000
C3193       C  0.20961136  0.13329197  0.40972544     0.03600
C3194       C  0.20984098  0.11663052  0.41730439    -0.25200
H3195       H  0.18739911  0.08033026  0.45939706     0.08700
H3196       H  0.20785290  0.08658942  0.43550013     0.12300
H3197       H  0.16294713  0.13018561  0.45175247     0.12200
H3198       H  0.17359321  0.14986999  0.42941323     0.12000
H3199       H  0.19592139  0.15782250  0.40820271     0.12500
H3200       H  0.22035343  0.10771627  0.41425194     0.14500
C3201       C  0.19751470  0.14756947  0.70540902    -0.05500
C3202       C  0.19390151  0.16307145  0.69637273    -0.05500
C3203       C  0.20400892  0.16820545  0.68213849    -0.23600
C3204       C  0.21781245  0.15778840  0.67640585     0.18600
C3205       C  0.22207285  0.14246992  0.68570805     0.15800
C3206       C  0.21203638  0.13756778  0.70037905    -0.18700
C3207       C  0.23578502  0.13199234  0.67964660    -0.20500
C3208       C  0.24471472  0.13632150  0.66423757    -0.13000
C3209       C  0.24021848  0.15129339  0.65468602     0.03600
C3210       C  0.22696185  0.16214521  0.66112646    -0.25200
H3211       H  0.18285375  0.17102371  0.70002338     0.08700
H3212       H  0.20061405  0.18003239  0.67521270     0.12300
H3213       H  0.21485089  0.12550364  0.70715649     0.12200
H3214       H  0.23931107  0.12020795  0.68656858     0.12000
H3215       H  0.25492998  0.12778591  0.65962019     0.12500
H3216       H  0.22336339  0.17376281  0.65393878     0.14500
C3217       C  0.22048881  0.15209625  0.57459085    -0.05500
C3218       C  0.20787403  0.16432300  0.56945666    -0.05500
C3219       C  0.19388768  0.15929581  0.55865483    -0.23600
C3220       C  0.19242314  0.14200990  0.55268539     0.18600
C3221       C  0.20524331  0.12982361  0.55776610     0.15800
C3222       C  0.21900576  0.13489567  0.56861475    -0.18700
C3223       C  0.20425601  0.11264390  0.55190264    -0.20500
C3224       C  0.19079516  0.10745652  0.54096118    -0.13000
C3225       C  0.17788960  0.11925784  0.53557745     0.03600
C3226       C  0.17863694  0.13661600  0.54162237    -0.25200
H3227       H  0.20874643  0.17767665  0.57390804     0.08700
H3228       H  0.18427205  0.16892139  0.55493485     0.12300
H3229       H  0.22870120  0.12533851  0.57235001     0.12200
H3230       H  0.21400234  0.10317948  0.55569397     0.12000
H3231       H  0.19060052  0.09403349  0.53660447     0.12500
H3232       H  0.16880503  0.14586931  0.53751825     0.14500
C3233       C  0.33959865  0.10917192  0.53244735    -0.05500
C3234       C  0.33087961  0.09659689  0.54250756    -0.05500
C3235       C  0.31911753  0.10171970  0.55560861    -0.23600
C3236       C  0.31574977  0.11947419  0.55864511     0.18600
C3237       C  0.32456258  0.13206635  0.54849682     0.15800
C3238       C  0.33645285  0.12686271  0.53572281    -0.18700
C3239       C  0.32114022  0.14976252  0.55096147    -0.20500
C3240       C  0.30883076  0.15505407  0.56315316    -0.13000
C3241       C  0.29987454  0.14282143  0.57338864     0.03600
C3242       C  0.30354732  0.12496317  0.57129956    -0.25200
H3243       H  0.33307665  0.08287057  0.54017885     0.08700
H3244       H  0.31248109  0.09181580  0.56317558     0.12300
H3245       H  0.34299523  0.13672372  0.52799555     0.12200
H3246       H  0.32779922  0.15954078  0.54324440     0.12000
H3247       H  0.30629429  0.16885178  0.56458729     0.12500
H3248       H  0.29658023  0.11543066  0.57905510     0.14500
C3249       C  0.33870754  0.12448825  0.45730588    -0.05500
C3250       C  0.34185823  0.14116118  0.45045022    -0.05500
C3251       C  0.32929073  0.14935083  0.43994340    -0.23600
C3252       C  0.31348876  0.14091143  0.43608330     0.18600
C3253       C  0.31029370  0.12423875  0.44320712     0.15800
C3254       C  0.32279110  0.11626854  0.45373145    -0.18700
C3255       C  0.29478872  0.11549627  0.43940690    -0.20500
C3256       C  0.28280055  0.12280265  0.42797902    -0.13000
C3257       C  0.28591775  0.13911403  0.42033482     0.03600
C3258       C  0.30105845  0.14844224  0.42482350    -0.25200
H3259       H  0.35398700  0.14781154  0.45318835     0.08700
H3260       H  0.33201988  0.16215090  0.43465341     0.12300
H3261       H  0.32011882  0.10344400  0.45902323     0.12200
H3262       H  0.29214185  0.10275384  0.44489020     0.12000
H3263       H  0.27113387  0.11549858  0.42484636     0.12500
H3264       H  0.30353848  0.16103001  0.41891911     0.14500
C3265       C  0.40526417  0.02493998  0.40389859    -0.05500
C3266       C  0.41672966  0.03890482  0.40681526    -0.05500
C3267       C  0.41424746  0.05023377  0.42079082    -0.23600
C3268       C  0.40021737  0.04787226  0.43215846     0.18600
C3269       C  0.38876202  0.03364852  0.42973838     0.15800
C3270       C  0.39138250  0.02217944  0.41558249    -0.18700
C3271       C  0.37475259  0.03146184  0.44132687    -0.20500
C3272       C  0.37188256  0.04353876  0.45480300    -0.13000
C3273       C  0.38295547  0.05797810  0.45683818     0.03600
C3274       C  0.39726816  0.05983297  0.44563773    -0.25200
H3275       H  0.42757394  0.04125455  0.39810804     0.08700
H3276       H  0.42317740  0.06104167  0.42253898     0.12300
H3277       H  0.38249544  0.01139419  0.41347905     0.12200
H3278       H  0.36583368  0.02062390  0.43976140     0.12000
H3279       H  0.36072944  0.04188980  0.46327866     0.12500
H3280       H  0.40595460  0.07088395  0.44715082     0.14500
C3281       C  0.28724508  0.86855379  0.14902578    -0.05500
C3282       C  0.30425514  0.86211349  0.14741482    -0.05500
C3283       C  0.31633253  0.86442005  0.16073846    -0.23600
C3284       C  0.31161342  0.87310597  0.17606533     0.18600
C3285       C  0.29464963  0.88002053  0.17786114     0.15800
C3286       C  0.28251764  0.87785461  0.16416447    -0.18700
C3287       C  0.29020305  0.88873047  0.19339713    -0.20500
C3288       C  0.30245160  0.89053596  0.20690621    -0.13000
C3289       C  0.31928306  0.88362209  0.20507215     0.03600
C3290       C  0.32369551  0.87489385  0.18961186    -0.25200
H3291       H  0.30824349  0.85514075  0.13576536     0.08700
H3292       H  0.32932684  0.85919642  0.15913011     0.12300
H3293       H  0.26940407  0.88288619  0.16547254     0.12200
H3294       H  0.27729526  0.89414306  0.19509039     0.12000
H3295       H  0.29881009  0.89740975  0.21871713     0.12500
H3296       H  0.33666793  0.86958367  0.18800630     0.14500
C3297       C  0.39423753  0.95243835  0.33466215    -0.05500
C3298       C  0.40633676  0.94018835  0.32860342    -0.05500
C3299       C  0.40147928  0.92772465  0.31636388    -0.23600
C3300       C  0.38454032  0.92763338  0.30969017     0.18600
C3301       C  0.37197051  0.93935935  0.31629449     0.15800
C3302       C  0.37684794  0.95155452  0.32910189    -0.18700
C3303       C  0.35513976  0.93937471  0.30912069    -0.20500
C3304       C  0.35118945  0.92865285  0.29482473    -0.13000
C3305       C  0.36397756  0.91767943  0.28774963     0.03600
C3306       C  0.38036383  0.91672946  0.29572910    -0.25200
H3307       H  0.41978475  0.94072208  0.33284619     0.08700
H3308       H  0.41120900  0.91876289  0.31144856     0.12300
H3309       H  0.36756811  0.96118002  0.33363185     0.12200
H3310       H  0.34529887  0.94820057  0.31404784     0.12000
H3311       H  0.33840730  0.92942486  0.28890818     0.12500
H3312       H  0.39026923  0.90815371  0.29045896     0.14500
C3313       C  0.39771068  0.94493181  0.04120836    -0.05500
C3314       C  0.41276322  0.94176234  0.05112562    -0.05500
C3315       C  0.41718553  0.95247228  0.06509040    -0.23600
C3316       C  0.40651718  0.96647770  0.06959782     0.18600
C3317       C  0.39149425  0.97018619  0.05957682     0.15800
C3318       C  0.38725490  0.95945125  0.04520088    -0.18700
C3319       C  0.38081697  0.98420124  0.06453235    -0.20500
C3320       C  0.38484729  0.99411525  0.07944780    -0.13000
C3321       C  0.39963754  0.99017597  0.08953131     0.03600
C3322       C  0.41049916  0.97649711  0.08431578    -0.25200
H3323       H  0.42103734  0.93072042  0.04826033     0.08700
H3324       H  0.42875271  0.94951971  0.07265005     0.12300
H3325       H  0.37553658  0.96189825  0.03769139     0.12200
H3326       H  0.36922811  0.98729272  0.05707424     0.12000
H3327       H  0.37629364  0.00465515  0.08323875     0.12500
H3328       H  0.42198845  0.97337689  0.09194162     0.14500
C3329       C  0.45621716  0.04300753  0.12053659    -0.05500
C3330       C  0.46959423  0.04612848  0.13269096    -0.05500
C3331       C  0.48179656  0.05938630  0.12977729    -0.23600
C3332       C  0.48080583  0.06969007  0.11465059     0.18600
C3333       C  0.46797376  0.06591057  0.10192497     0.15800
C3334       C  0.45587820  0.05257842  0.10490390    -0.18700
C3335       C  0.46689426  0.07605096  0.08677032    -0.20500
C3336       C  0.47788381  0.09032052  0.08456154    -0.13000
C3337       C  0.49020432  0.09473373  0.09743273     0.03600
C3338       C  0.49191450  0.08408871  0.11230110    -0.25200
H3339       H  0.47005977  0.03895949  0.14486291     0.08700
H3340       H  0.49160169  0.06199123  0.13964724     0.12300
H3341       H  0.44564197  0.05022619  0.09540289     0.12200
H3342       H  0.45720093  0.07325209  0.07683949     0.12000
H3343       H  0.47639291  0.09821172  0.07293064     0.12500
H3344       H  0.50142045  0.08734304  0.12228139     0.14500
C3345       C  0.38477253  0.92744337  0.21126402    -0.05500
C3346       C  0.40139130  0.92454535  0.20419303    -0.05500
C3347       C  0.40905628  0.93690816  0.19305903    -0.23600
C3348       C  0.40010016  0.95224454  0.18863296     0.18600
C3349       C  0.38349277  0.95526752  0.19596694     0.15800
C3350       C  0.37610261  0.94303989  0.20731431    -0.18700
C3351       C  0.37422333  0.97026960  0.19150132    -0.20500
C3352       C  0.38105204  0.98198386  0.17946720    -0.13000
C3353       C  0.39742140  0.97916204  0.17181929     0.03600
C3354       C  0.40713183  0.96439457  0.17670797    -0.25200
H3355       H  0.40836902  0.91266503  0.20713283     0.08700
H3356       H  0.42180262  0.93431220  0.18764159     0.12300
H3357       H  0.36327893  0.94547445  0.21266405     0.12200
H3358       H  0.36150621  0.97277873  0.19704575     0.12000
H3359       H  0.37340210  0.99332750  0.17606381     0.12500
H3360       H  0.41974530  0.96208860  0.17084256     0.14500
C3361       C  0.37609879  0.16729689  0.23102056    -0.05500
C3362       C  0.39204671  0.17589478  0.23359988    -0.05500
C3363       C  0.39629745  0.19060445  0.22364918    -0.23600
C3364       C  0.38473189  0.19679383  0.21085225     0.18600
C3365       C  0.36866810  0.18816871  0.20826928     0.15800
C3366       C  0.36444466  0.17363059  0.21840506    -0.18700
C3367       C  0.35720455  0.19392821  0.19527735    -0.20500
C3368       C  0.36181670  0.20777546  0.18450180    -0.13000
C3369       C  0.37782529  0.21631189  0.18670793     0.03600
C3370       C  0.38911755  0.21104509  0.20018614    -0.25200
H3371       H  0.40125508  0.17118454  0.24322079     0.08700
H3372       H  0.40871296  0.19696815  0.22577362     0.12300
H3373       H  0.35215872  0.16701855  0.21618946     0.12200
H3374       H  0.34485842  0.18742229  0.19313552     0.12000
H3375       H  0.35299200  0.21159569  0.17414146     0.12500
H3376       H  0.40162904  0.21739967  0.20174734     0.14500
C3377       C  0.32843718  0.13938130  0.29356987    -0.05500
C3378       C  0.33407094  0.15153860  0.30613095    -0.05500
C3379       C  0.32331781  0.15624147  0.32006903    -0.23600
C3380       C  0.30679839  0.14870492  0.32182980     0.18600
C3381       C  0.30092615  0.13660168  0.30916446     0.15800
C3382       C  0.31170447  0.13216263  0.29501499    -0.18700
C3383       C  0.28454021  0.12881765  0.31111260    -0.20500
C3384       C  0.27419259  0.13271297  0.32561508    -0.13000
C3385       C  0.27994134  0.14461338  0.33833213     0.03600
C3386       C  0.29620813  0.15275546  0.33622917    -0.25200
H3387       H  0.34692048  0.15727680  0.30529398     0.08700
H3388       H  0.32805826  0.16553337  0.32965439     0.12300
H3389       H  0.30729085  0.12267402  0.28546120     0.12200
H3390       H  0.27982897  0.11949525  0.30155056     0.12000
H3391       H  0.26170560  0.12632333  0.32693813     0.12500
H3392       H  0.30081630  0.16192604  0.34601063     0.14500
C3393       C  0.36614825  0.09296201  0.21127559    -0.05500
C3394       C  0.35312901  0.08160134  0.20520711    -0.05500
C3395       C  0.35646677  0.07041657  0.19105278    -0.23600
C3396       C  0.37289824  0.07038111  0.18295904     0.18600
C3397       C  0.38572560  0.08229605  0.18871955     0.15800
C3398       C  0.38217669  0.09356339  0.20256280    -0.18700
C3399       C  0.40229393  0.08221811  0.18119130    -0.20500
C3400       C  0.40654565  0.06975701  0.16873818    -0.13000
C3401       C  0.39419098  0.05746900  0.16325695     0.03600
C3402       C  0.37714409  0.05814838  0.16990493    -0.25200
H3403       H  0.34065488  0.08097265  0.21173736     0.08700
H3404       H  0.34642868  0.06139903  0.18683869     0.12300
H3405       H  0.39229364  0.10239080  0.20703605     0.12200
H3406       H  0.41222664  0.09131660  0.18550017     0.12000
H3407       H  0.41972151  0.06935785  0.16372837     0.12500
H3408       H  0.36766223  0.04846409  0.16585547     0.14500
C3409       C  0.38697706  0.08396039  0.28590948    -0.05500
C3410       C  0.40413331  0.08557025  0.29205579    -0.05500
C3411       C  0.41168664  0.07225466  0.30198874    -0.23600
C3412       C  0.40211601  0.05722647  0.30607838     0.18600
C3413       C  0.38494809  0.05543932  0.29962545     0.15800
C3414       C  0.37759120  0.06869398  0.28950665    -0.18700
C3415       C  0.37517125  0.04066055  0.30383469    -0.20500
C3416       C  0.38200072  0.02812038  0.31502729    -0.13000
C3417       C  0.39883727  0.02994909  0.32198394     0.03600
C3418       C  0.40909349  0.04427461  0.31703041    -0.25200
H3419       H  0.41165165  0.09716739  0.28929164     0.08700
H3420       H  0.42487222  0.07386894  0.30677026     0.12300
H3421       H  0.36435946  0.06725384  0.28474219     0.12200
H3422       H  0.36202644  0.03905770  0.29890965     0.12000
H3423       H  0.37393476  0.01709711  0.31854124     0.12500
H3424       H  0.42208183  0.04578173  0.32238468     0.14500
C3425       C  0.65611712  0.17439343  0.72189569    -0.05500
C3426       C  0.66853512  0.18155530  0.71050898    -0.05500
C3427       C  0.66459561  0.19612559  0.70042366    -0.23600
C3428       C  0.64807852  0.20371707  0.70138593     0.18600
C3429       C  0.63563653  0.19708969  0.71325540     0.15800
C3430       C  0.63979026  0.18250463  0.72357609    -0.18700
C3431       C  0.61909115  0.20480578  0.71407477    -0.20500
C3432       C  0.61469365  0.21839944  0.70268614    -0.13000
C3433       C  0.62676465  0.22441831  0.69031582     0.03600
C3434       C  0.64358958  0.21733903  0.69009861    -0.25200
H3435       H  0.68126654  0.17568388  0.70915431     0.08700
H3436       H  0.67431563  0.20114722  0.69148834     0.12300
H3437       H  0.63014951  0.17711615  0.73238724     0.12200
H3438       H  0.60938667  0.19996996  0.72312321     0.12000
H3439       H  0.60162897  0.22365226  0.70300097     0.12500
H3440       H  0.65301707  0.22200340  0.68064916     0.14500
C3441       C  0.58098763  0.29940997  0.64054766    -0.05500
C3442       C  0.57099785  0.30773857  0.65346163    -0.05500
C3443       C  0.56022292  0.32182373  0.64906901    -0.23600
C3444       C  0.55923754  0.32768613  0.63168464     0.18600
C3445       C  0.56956922  0.31950393  0.61878322     0.15800
C3446       C  0.58040177  0.30562971  0.62331383    -0.18700
C3447       C  0.56858593  0.32493963  0.60136824    -0.20500
C3448       C  0.55698585  0.33795179  0.59656916    -0.13000
C3449       C  0.54638288  0.34602662  0.60910574     0.03600
C3450       C  0.54779898  0.34116518  0.62678723    -0.25200
H3451       H  0.57132677  0.30320713  0.66686074     0.08700
H3452       H  0.55244174  0.32790066  0.65917315     0.12300
H3453       H  0.58812157  0.29939878  0.61323827     0.12200
H3454       H  0.57646458  0.31881325  0.59136602     0.12000
H3455       H  0.55614670  0.34159398  0.58290596     0.12500
H3456       H  0.53952663  0.34726763  0.63648210     0.14500
C3457       C  0.52678675  0.09396059  0.59969596    -0.05500
C3458       C  0.53924981  0.08990113  0.58690223    -0.05500
C3459       C  0.55064527  0.07601364  0.58924067    -0.23600
C3460       C  0.54987579  0.06600559  0.60449512     0.18600
C3461       C  0.53702008  0.06952813  0.61722786     0.15800
C3462       C  0.52544233  0.08346438  0.61469369    -0.18700
C3463       C  0.53642449  0.05942468  0.63251357    -0.20500
C3464       C  0.54889384  0.04645411  0.63543430    -0.13000
C3465       C  0.56212663  0.04349306  0.62314191     0.03600
C3466       C  0.56224968  0.05301007  0.60750861    -0.25200
H3467       H  0.54046748  0.09774012  0.57520099     0.08700
H3468       H  0.56037476  0.07341092  0.57933938     0.12300
H3469       H  0.51589636  0.08653358  0.62464509     0.12200
H3470       H  0.52666287  0.06189527  0.64241393     0.12000
H3471       H  0.54868010  0.03931340  0.64763658     0.12500
H3472       H  0.57240526  0.05073800  0.59794890     0.14500
C3473       C  0.41861621  0.10512689  0.51608300    -0.05500
C3474       C  0.42434132  0.09166166  0.52708219    -0.05500
C3475       C  0.43871675  0.09397092  0.53794128    -0.23600
C3476       C  0.44760765  0.10986505  0.53813069     0.18600
C3477       C  0.44259279  0.12329878  0.52655385     0.15800
C3478       C  0.42811794  0.12081297  0.51547261    -0.18700
C3479       C  0.45172749  0.13916436  0.52686544    -0.20500
C3480       C  0.46500345  0.14196521  0.53918201    -0.13000
C3481       C  0.46925152  0.12896498  0.55136384     0.03600
C3482       C  0.46088359  0.11276523  0.55034864    -0.25200
H3483       H  0.41738830  0.07939759  0.52765544     0.08700
H3484       H  0.44251931  0.08351091  0.54662107     0.12300
H3485       H  0.42384931  0.13126367  0.50698384     0.12200
H3486       H  0.44819902  0.14959846  0.51802782     0.12000
H3487       H  0.47131608  0.15456302  0.53976706     0.12500
H3488       H  0.46421678  0.10261585  0.55960034     0.14500
C3489       C  0.53849787  0.17137316  0.61269950    -0.05500
C3490       C  0.53968427  0.17330045  0.63094681    -0.05500
C3491       C  0.55104514  0.18534072  0.63833296    -0.23600
C3492       C  0.56156491  0.19564829  0.62763014     0.18600
C3493       C  0.56097215  0.19357141  0.60925715     0.15800
C3494       C  0.54932743  0.18144019  0.60184716    -0.18700
C3495       C  0.57185540  0.20387793  0.59873070    -0.20500
C3496       C  0.58291400  0.21630990  0.60635937    -0.13000
C3497       C  0.58304496  0.21872164  0.62456960     0.03600
C3498       C  0.57246410  0.20819926  0.63509343    -0.25200
H3499       H  0.53148725  0.16574213  0.63959988     0.08700
H3500       H  0.55143164  0.18674659  0.65243786     0.12300
H3501       H  0.54853020  0.18000975  0.58776231     0.12200
H3502       H  0.57168058  0.20245387  0.58463057     0.12000
H3503       H  0.59101097  0.22432242  0.59803460     0.12500
H3504       H  0.57264452  0.20984564  0.64918788     0.14500
C3505       C  0.35015354  0.23623306  0.63797303    -0.05500
C3506       C  0.34799995  0.22188989  0.64917493    -0.05500
C3507       C  0.33383227  0.21071985  0.64736862    -0.23600
C3508       C  0.32142156  0.21360402  0.63430919     0.18600
C3509       C  0.32308051  0.22813703  0.62310353     0.15800
C3510       C  0.33751374  0.23940959  0.62497705    -0.18700
C3511       C  0.31042598  0.23083590  0.61008302    -0.20500
C3512       C  0.29670027  0.21892756  0.60784342    -0.13000
C3513       C  0.29542826  0.20413192  0.61857703     0.03600
C3514       C  0.30766190  0.20183062  0.63202313    -0.25200
H3515       H  0.35746211  0.21911017  0.65929636     0.08700
H3516       H  0.33271746  0.19964800  0.65607657     0.12300
H3517       H  0.33898505  0.25045878  0.61629178     0.12200
H3518       H  0.31136576  0.24192200  0.60137818     0.12000
H3519       H  0.28747304  0.22093827  0.59732843     0.12500
H3520       H  0.30679393  0.19050657  0.64044156     0.14500
C3521       C  0.42761757  0.22580559  0.63017015    -0.05500
C3522       C  0.43478033  0.22736178  0.61336377    -0.05500
C3523       C  0.44527763  0.21437536  0.60649460    -0.23600
C3524       C  0.44879792  0.19942193  0.61621989     0.18600
C3525       C  0.44176193  0.19740683  0.63315836     0.15800
C3526       C  0.43119396  0.21076965  0.64016198    -0.18700
C3527       C  0.44551069  0.18208758  0.64256644    -0.20500
C3528       C  0.45632054  0.16916723  0.63528686    -0.13000
C3529       C  0.46344704  0.17143124  0.61850948     0.03600
C3530       C  0.45941511  0.18654990  0.60911170    -0.25200
H3531       H  0.43228288  0.23875870  0.60543168     0.08700
H3532       H  0.45063589  0.21603864  0.59349188     0.12300
H3533       H  0.42559545  0.20937907  0.65309124     0.12200
H3534       H  0.44023083  0.18018288  0.65556074     0.12000
H3535       H  0.45930375  0.15761869  0.64281603     0.12500
H3536       H  0.46473466  0.18848425  0.59612462     0.14500
C3537       C  0.46788299  0.34709924  0.59825255    -0.05500
C3538       C  0.45889448  0.33855082  0.58471563    -0.05500
C3539       C  0.44549471  0.32670759  0.58855866    -0.23600
C3540       C  0.44094842  0.32316942  0.60600762     0.18600
C3541       C  0.44967699  0.33214677  0.61960127     0.15800
C3542       C  0.46290058  0.34404853  0.61564733    -0.18700
C3543       C  0.44546986  0.32871811  0.63704402    -0.20500
C3544       C  0.43330333  0.31592993  0.64109718    -0.13000
C3545       C  0.42486993  0.30643783  0.62784220     0.03600
C3546       C  0.42833896  0.31044550  0.61021344    -0.25200
H3547       H  0.46242890  0.34078482  0.57120345     0.08700
H3548       H  0.43896055  0.32004532  0.57791347     0.12300
H3549       H  0.46963414  0.35062875  0.62623556     0.12200
H3550       H  0.45196400  0.33557185  0.64759352     0.12000
H3551       H  0.43070329  0.31320412  0.65475155     0.12500
H3552       H  0.42193839  0.30313873  0.59991044     0.14500
C3553       C  0.99031102  0.92488737  0.10865496    -0.05500
C3554       C  0.99428963  0.93491433  0.12350624    -0.05500
C3555       C  0.98386668  0.94911588  0.12816234    -0.23600
C3556       C  0.96915342  0.95338926  0.11816906     0.18600
C3557       C  0.96515307  0.94345712  0.10310138     0.15800
C3558       C  0.97583236  0.92942798  0.09836039    -0.18700
C3559       C  0.95026405  0.94741274  0.09328733    -0.20500
C3560       C  0.93914277  0.96074203  0.09862877    -0.13000
C3561       C  0.94286262  0.97057454  0.11368013     0.03600
C3562       C  0.95809503  0.96706996  0.12323333    -0.25200
H3563       H  0.00536360  0.93166096  0.13162472     0.08700
H3564       H  0.98712914  0.95655359  0.13977498     0.12300
H3565       H  0.97255873  0.92172880  0.08690928     0.12200
H3566       H  0.94700231  0.93993469  0.08169794     0.12000
H3567       H  0.92749245  0.96326575  0.09106154     0.12500
H3568       H  0.96095787  0.97450390  0.13496571     0.14500
C3569       C  0.09693266  0.90202238  0.01169125    -0.05500
C3570       C  0.09002979  0.88514862  0.00999778    -0.05500
C3571       C  0.07582969  0.87992563  0.02020798    -0.23600
C3572       C  0.06840576  0.89146595  0.03233733     0.18600
C3573       C  0.07486338  0.90867686  0.03353533     0.15800
C3574       C  0.08887738  0.91387354  0.02307219    -0.18700
C3575       C  0.06779232  0.92019890  0.04580908    -0.20500
C3576       C  0.05505562  0.91450568  0.05743807    -0.13000
C3577       C  0.04885991  0.89731554  0.05675426     0.03600
C3578       C  0.05520464  0.88595210  0.04381773    -0.25200
H3579       H  0.09601295  0.87580336  0.00127235     0.08700
H3580       H  0.07104879  0.86668369  0.01905086     0.12300
H3581       H  0.09404012  0.92696229  0.02441038     0.12200
H3582       H  0.07256570  0.93345163  0.04684692     0.12000
H3583       H  0.05025684  0.92348421  0.06723923     0.12500
H3584       H  0.05056351  0.87261558  0.04331285     0.14500
C3585       C  0.85398029  0.74527786  0.14858709    -0.05500
C3586       C  0.85232603  0.73009203  0.15870873    -0.05500
C3587       C  0.83803422  0.71906867  0.15668164    -0.23600
C3588       C  0.82496161  0.72304967  0.14457480     0.18600
C3589       C  0.82617764  0.73848442  0.13458202     0.15800
C3590       C  0.84076468  0.74947600  0.13655592    -0.18700
C3591       C  0.81287690  0.74247635  0.12264852    -0.20500
C3592       C  0.79886926  0.73102508  0.12020999    -0.13000
C3593       C  0.79794123  0.71533740  0.12959307     0.03600
C3594       C  0.81091100  0.71162026  0.14202261    -0.25200
H3595       H  0.86226904  0.72655578  0.16810187     0.08700
H3596       H  0.83728921  0.70732824  0.16449973     0.12300
H3597       H  0.84184263  0.76120329  0.12874972     0.12200
H3598       H  0.81348563  0.75428374  0.11492846     0.12000
H3599       H  0.78910692  0.73413064  0.11048929     0.12500
H3600       H  0.81037392  0.69954333  0.14934514     0.14500
C3601       C  0.88440914  0.80459455  0.19835086    -0.05500
C3602       C  0.89708804  0.81036491  0.21029163    -0.05500
C3603       C  0.89345438  0.82407078  0.22188356    -0.23600
C3604       C  0.87705004  0.83214218  0.22176401     0.18600
C3605       C  0.86392752  0.82557165  0.21056120     0.15800
C3606       C  0.86767907  0.81188031  0.19900585    -0.18700
C3607       C  0.84747754  0.83335539  0.21043485    -0.20500
C3608       C  0.84429122  0.84815486  0.22049769    -0.13000
C3609       C  0.85742351  0.85544727  0.23102211     0.03600
C3610       C  0.87368727  0.84704426  0.23204111    -0.25200
H3611       H  0.91008512  0.80494938  0.20998583     0.08700
H3612       H  0.90367225  0.82877899  0.23047091     0.12300
H3613       H  0.85776402  0.80740740  0.18992270     0.12200
H3614       H  0.83720435  0.82833201  0.20209187     0.12000
H3615       H  0.83157393  0.85415288  0.21972511     0.12500
H3616       H  0.88387813  0.85245955  0.24024563     0.14500
C3617       C  0.97215296  0.85169278  0.10410510    -0.05500
C3618       C  0.96292113  0.84269895  0.09102084    -0.05500
C3619       C  0.94878112  0.83194944  0.09550511    -0.23600
C3620       C  0.94387397  0.82993877  0.11312941     0.18600
C3621       C  0.95276197  0.83961860  0.12610552     0.15800
C3622       C  0.96650020  0.85054180  0.12148586    -0.18700
C3623       C  0.94843351  0.83764254  0.14372664    -0.20500
C3624       C  0.93603489  0.82546599  0.14867902    -0.13000
C3625       C  0.92741049  0.81526546  0.13612719     0.03600
C3626       C  0.93092098  0.81791102  0.11822877    -0.25200
H3627       H  0.96693285  0.84357431  0.07748225     0.08700
H3628       H  0.94210170  0.82475805  0.08529488     0.12300
H3629       H  0.97333139  0.85760246  0.13169747     0.12200
H3630       H  0.95514109  0.84503131  0.15377678     0.12000
H3631       H  0.93346724  0.82369600  0.16249209     0.12500
H3632       H  0.92442794  0.80994204  0.10848529     0.14500
C3633       C  0.02319032  0.59856873  0.11324094    -0.05500
C3634       C  0.02230798  0.59076393  0.12983351    -0.05500
C3635       C  0.03284038  0.57640505  0.13388574    -0.23600
C3636       C  0.04454531  0.56973215  0.12146027     0.18600
C3637       C  0.04515577  0.57729016  0.10462436     0.15800
C3638       C  0.03437916  0.59144346  0.10059688    -0.18700
C3639       C  0.05706652  0.57106997  0.09226308    -0.20500
C3640       C  0.06881423  0.55797782  0.09672112    -0.13000
C3641       C  0.06863332  0.55053936  0.11348042     0.03600
C3642       C  0.05613522  0.55615324  0.12571003    -0.25200
H3643       H  0.01384825  0.59606428  0.13982060     0.08700
H3644       H  0.03218742  0.57084033  0.14688768     0.12300
H3645       H  0.03521960  0.59735255  0.08774511     0.12200
H3646       H  0.05768988  0.57673505  0.07929584     0.12000
H3647       H  0.07830473  0.55385407  0.08711789     0.12500
H3648       H  0.05605231  0.55062837  0.13875432     0.14500
C3649       C  0.91158479  0.61754865  0.02744447    -0.05500
C3650       C  0.91033244  0.60981288  0.04404370    -0.05500
C3651       C  0.92333896  0.61217956  0.05652720    -0.23600
C3652       C  0.93804355  0.62218946  0.05265610     0.18600
C3653       C  0.93975511  0.62984836  0.03593450     0.15800
C3654       C  0.92638822  0.62761790  0.02341796    -0.18700
C3655       C  0.95475590  0.63963831  0.03218940    -0.20500
C3656       C  0.96764632  0.64211642  0.04500127    -0.13000
C3657       C  0.96572527  0.63490494  0.06179496     0.03600
C3658       C  0.95094408  0.62477559  0.06538691    -0.25200
H3659       H  0.89907819  0.60206163  0.04751619     0.08700
H3660       H  0.92185149  0.60619999  0.06927406     0.12300
H3661       H  0.92753766  0.63357291  0.01061640     0.12200
H3662       H  0.95643256  0.64553496  0.01942543     0.12000
H3663       H  0.97894192  0.64994896  0.04188971     0.12500
H3664       H  0.94931995  0.61906141  0.07824782     0.14500
C3665       C  0.96897171  0.68220384  0.12781314    -0.05500
C3666       C  0.96138112  0.67962768  0.14433590    -0.05500
C3667       C  0.95081810  0.69257197  0.15184114    -0.23600
C3668       C  0.94762508  0.70824585  0.14289224     0.18600
C3669       C  0.95540169  0.71087491  0.12635994     0.15800
C3670       C  0.96603417  0.69799550  0.11907202    -0.18700
C3671       C  0.95220832  0.72623962  0.11711339    -0.20500
C3672       C  0.94108290  0.73880664  0.12393334    -0.13000
C3673       C  0.93311463  0.73646755  0.14028408     0.03600
C3674       C  0.93661811  0.72121681  0.14990285    -0.25200
H3675       H  0.96350739  0.66759026  0.15136875     0.08700
H3676       H  0.94500116  0.69024774  0.16452720     0.12300
H3677       H  0.97184165  0.70022072  0.10635093     0.12200
H3678       H  0.95810579  0.72843096  0.10443463     0.12000
H3679       H  0.93867175  0.75044642  0.11633139     0.12500
H3680       H  0.93042980  0.71924579  0.16247652     0.14500
C3681       C  0.17207414  0.77778283  0.13127861    -0.05500
C3682       C  0.18159757  0.77303020  0.11633673    -0.05500
C3683       C  0.19706555  0.78173553  0.11204297    -0.23600
C3684       C  0.20325750  0.79538165  0.12260573     0.18600
C3685       C  0.19398210  0.79989631  0.13791321     0.15800
C3686       C  0.17855013  0.79108657  0.14214314    -0.18700
C3687       C  0.19998001  0.81352172  0.14851069    -0.20500
C3688       C  0.21446727  0.82323991  0.14352367    -0.13000
C3689       C  0.22334026  0.81948533  0.12791578     0.03600
C3690       C  0.21806868  0.80509606  0.11778504    -0.25200
H3691       H  0.17695099  0.76274539  0.10782914     0.08700
H3692       H  0.20398614  0.77802591  0.10028453     0.12300
H3693       H  0.17140511  0.79483455  0.15376679     0.12200
H3694       H  0.19310243  0.81706967  0.16034743     0.12000
H3695       H  0.21832210  0.83420623  0.15157529     0.12500
H3696       H  0.22475542  0.80217111  0.10566161     0.14500
C3697       C  0.14293318  0.72643889  0.18652161    -0.05500
C3698       C  0.15988282  0.71970177  0.18615364    -0.05500
C3699       C  0.16469573  0.70623578  0.19732684    -0.23600
C3700       C  0.15249842  0.69903821  0.20882551     0.18600
C3701       C  0.13559937  0.70621765  0.20992704     0.15800
C3702       C  0.13097172  0.72013320  0.19889871    -0.18700
C3703       C  0.12342774  0.69872565  0.22137234    -0.20500
C3704       C  0.12777939  0.68388107  0.23108660    -0.13000
C3705       C  0.14434618  0.67634354  0.22949343     0.03600
C3706       C  0.15674591  0.68426286  0.21862252    -0.25200
H3707       H  0.16923382  0.72441014  0.17667322     0.08700
H3708       H  0.17771535  0.70093672  0.19641288     0.12300
H3709       H  0.11779258  0.72512246  0.19902771     0.12200
H3710       H  0.11042402  0.70402420  0.22242400     0.12000
H3711       H  0.11802133  0.67797176  0.23939329     0.12500
H3712       H  0.16959261  0.67859985  0.21734797     0.14500
C3713       C  0.09104242  0.79289445  0.12952077    -0.05500
C3714       C  0.08308895  0.79078572  0.11309779    -0.05500
C3715       C  0.07121247  0.80296481  0.10687278    -0.23600
C3716       C  0.06721794  0.81774395  0.11678218     0.18600
C3717       C  0.07513569  0.82025459  0.13329269     0.15800
C3718       C  0.08690071  0.80764016  0.13971360    -0.18700
C3719       C  0.07122453  0.83542506  0.14285035    -0.20500
C3720       C  0.05969249  0.84792836  0.13604253    -0.13000
C3721       C  0.05174220  0.84536610  0.11965259     0.03600
C3722       C  0.05555438  0.83012830  0.11022854    -0.25200
H3723       H  0.08596515  0.77955161  0.10503338     0.08700
H3724       H  0.06525763  0.80088927  0.09416945     0.12300
H3725       H  0.09303993  0.80944416  0.15236941     0.12200
H3726       H  0.07717704  0.83768294  0.15551836     0.12000
H3727       H  0.05696872  0.85954729  0.14357941     0.12500
H3728       H  0.04957403  0.82794838  0.09754844     0.14500
C3729       C  0.04539644  0.67444771  0.10753254    -0.05500
C3730       C  0.05393438  0.68196044  0.09316205    -0.05500
C3731       C  0.06847224  0.69272225  0.09568330    -0.23600
C3732       C  0.07455520  0.69633489  0.11263618     0.18600
C3733       C  0.06627248  0.68842193  0.12710427     0.15800
C3734       C  0.05193828  0.67742873  0.12444518    -0.18700
C3735       C  0.07198350  0.69218847  0.14408558    -0.20500
C3736       C  0.08511375  0.70443453  0.14680234    -0.13000
C3737       C  0.09306649  0.71288277  0.13260744     0.03600
C3738       C  0.08818747  0.70831704  0.11547067    -0.25200
H3739       H  0.04918973  0.67975788  0.08000402     0.08700
H3740       H  0.07464122  0.69861570  0.08441149     0.12300
H3741       H  0.04549437  0.67167603  0.13565234     0.12200
H3742       H  0.06584349  0.68616321  0.15531248     0.12000
H3743       H  0.08879120  0.70764713  0.16010824     0.12500
H3744       H  0.09420351  0.71485068  0.10446804     0.14500
C3745       C  0.34789807  0.73304234  0.34522220    -0.05500
C3746       C  0.34680603  0.71778154  0.33509766    -0.05500
C3747       C  0.33272757  0.70642522  0.33693505    -0.23600
C3748       C  0.31948549  0.71010815  0.34895575     0.18600
C3749       C  0.31995226  0.72587185  0.35851927     0.15800
C3750       C  0.33412776  0.73728652  0.35653327    -0.18700
C3751       C  0.30664361  0.72953435  0.37050677    -0.20500
C3752       C  0.29361250  0.71724341  0.37379300    -0.13000
C3753       C  0.29362571  0.70113692  0.36507991     0.03600
C3754       C  0.30626473  0.69792143  0.35219611    -0.25200
H3755       H  0.35718062  0.71427562  0.32620812     0.08700
H3756       H  0.33251221  0.69445783  0.32938773     0.12300
H3757       H  0.33476987  0.74910223  0.36429163     0.12200
H3758       H  0.30668200  0.74162408  0.37783520     0.12000
H3759       H  0.28393313  0.72006004  0.38367298     0.12500
H3760       H  0.30631149  0.68558408  0.34526389     0.14500
C3761       C  0.38526142  0.79334385  0.30264697    -0.05500
C3762       C  0.39775729  0.79616948  0.28954132    -0.05500
C3763       C  0.39529537  0.80926165  0.27696117    -0.23600
C3764       C  0.38025621  0.81967035  0.27725293     0.18600
C3765       C  0.36732379  0.81628331  0.28994127     0.15800
C3766       C  0.36991169  0.80323786  0.30247373    -0.18700
C3767       C  0.35220126  0.82637819  0.29032748    -0.20500
C3768       C  0.35014941  0.84020663  0.27875868    -0.13000
C3769       C  0.36316923  0.84432725  0.26653373     0.03600
C3770       C  0.37811095  0.83373844  0.26556602    -0.25200
H3771       H  0.40968947  0.78869215  0.28940754     0.08700
H3772       H  0.40533833  0.81152570  0.26728948     0.12300
H3773       H  0.36009582  0.80107126  0.31241778     0.12200
H3774       H  0.34212220  0.82386767  0.29990418     0.12000
H3775       H  0.33851296  0.84807456  0.27981235     0.12500
H3776       H  0.38823386  0.83675934  0.25618341     0.14500
C3777       C  0.48869003  0.91533839  0.40140819    -0.05500
C3778       C  0.47721898  0.92145534  0.41431192    -0.05500
C3779       C  0.46682285  0.93598355  0.41127417    -0.23600
C3780       C  0.46767287  0.94468655  0.39523846     0.18600
C3781       C  0.47985582  0.93934854  0.38247340     0.15800
C3782       C  0.49039096  0.92469207  0.38566652    -0.18700
C3783       C  0.48069199  0.94832997  0.36649845    -0.20500
C3784       C  0.46892719  0.96179173  0.36288791    -0.13000
C3785       C  0.45614371  0.96638531  0.37516196     0.03600
C3786       C  0.45594961  0.95811915  0.39150717    -0.25200
H3787       H  0.47584232  0.91463771  0.42662349     0.08700
H3788       H  0.45769752  0.94005227  0.42125614     0.12300
H3789       H  0.49927158  0.92014535  0.37566249     0.12200
H3790       H  0.49000383  0.94454417  0.35658207     0.12000
H3791       H  0.46923255  0.96796651  0.35016482     0.12500
H3792       H  0.44616482  0.96164376  0.40107658     0.14500
C3793       C  0.54614752  0.87878369  0.44867393    -0.05500
C3794       C  0.54765056  0.86864053  0.46389057    -0.05500
C3795       C  0.56181661  0.87099832  0.47531503    -0.23600
C3796       C  0.57466993  0.88354019  0.47168330     0.18600
C3797       C  0.57290075  0.89401026  0.45660120     0.15800
C3798       C  0.55872079  0.89162668  0.44534982    -0.18700
C3799       C  0.58550496  0.90656010  0.45273947    -0.20500
C3800       C  0.59983867  0.90877652  0.46365115    -0.13000
C3801       C  0.60195409  0.89849889  0.47869104     0.03600
C3802       C  0.58928508  0.88581127  0.48268135    -0.25200
H3803       H  0.53819175  0.85856241  0.46666039     0.08700
H3804       H  0.56286534  0.86283595  0.48681713     0.12300
H3805       H  0.55771787  0.89957511  0.43367491     0.12200
H3806       H  0.58431421  0.91466517  0.44120115     0.12000
H3807       H  0.60933697  0.91862198  0.46025470     0.12500
H3808       H  0.59074398  0.87784274  0.49428182     0.14500
C3809       C  0.47096337  0.83851841  0.38931482    -0.05500
C3810       C  0.47041697  0.83738773  0.37095577    -0.05500
C3811       C  0.45808824  0.82715468  0.36253022    -0.23600
C3812       C  0.44591088  0.81777538  0.37222200     0.18600
C3813       C  0.44594012  0.81882006  0.39069382     0.15800
C3814       C  0.45859665  0.82919971  0.39921972    -0.18700
C3815       C  0.43341601  0.80929444  0.40011503    -0.20500
C3816       C  0.42135690  0.79862453  0.39129086    -0.13000
C3817       C  0.42180013  0.79723770  0.37296255     0.03600
C3818       C  0.43394678  0.80708352  0.36358469    -0.25200
H3819       H  0.47972934  0.84433300  0.36294908     0.08700
H3820       H  0.45818941  0.82646657  0.34836240     0.12300
H3821       H  0.45888882  0.82993446  0.41338414     0.12200
H3822       H  0.43312123  0.80988538  0.41428049     0.12000
H3823       H  0.41215055  0.79100143  0.39877736     0.12500
H3824       H  0.43431136  0.80616027  0.34942105     0.14500
C3825       C  0.66535401  0.78317795  0.35511592    -0.05500
C3826       C  0.66707028  0.79881749  0.34577096    -0.05500
C3827       C  0.68058855  0.81033160  0.34936332    -0.23600
C3828       C  0.69285007  0.80641384  0.36228340     0.18600
C3829       C  0.69162997  0.79061163  0.37165472     0.15800
C3830       C  0.67774540  0.77906035  0.36809141    -0.18700
C3831       C  0.70426953  0.78684197  0.38442938    -0.20500
C3832       C  0.71773019  0.79874811  0.38800925    -0.13000
C3833       C  0.71868209  0.81463160  0.37893838     0.03600
C3834       C  0.70622275  0.81822734  0.36600626    -0.25200
H3835       H  0.65773435  0.80234249  0.33577074     0.08700
H3836       H  0.68139817  0.82238751  0.34205201     0.12300
H3837       H  0.67658957  0.76699235  0.37533381     0.12200
H3838       H  0.70366704  0.77477758  0.39173364     0.12000
H3839       H  0.72718548  0.79568901  0.39805298     0.12500
H3840       H  0.70683136  0.83038576  0.35883423     0.14500
C3841       C  0.64092270  0.72147940  0.30429929    -0.05500
C3842       C  0.65776047  0.71450588  0.30564856    -0.05500
C3843       C  0.66305564  0.70088906  0.29475067    -0.23600
C3844       C  0.65144979  0.69366845  0.28256666     0.18600
C3845       C  0.63464293  0.70090121  0.28068311     0.15800
C3846       C  0.62957033  0.71497988  0.29137927    -0.18700
C3847       C  0.62297966  0.69341240  0.26867222    -0.20500
C3848       C  0.62769313  0.67855812  0.25910955    -0.13000
C3849       C  0.64419923  0.67098363  0.26126158     0.03600
C3850       C  0.65614976  0.67890245  0.27276599    -0.25200
H3851       H  0.66671914  0.71933009  0.31547873     0.08700
H3852       H  0.67601725  0.69557126  0.29631768     0.12300
H3853       H  0.61649241  0.72014444  0.29038193     0.12200
H3854       H  0.61005248  0.69876243  0.26700850     0.12000
H3855       H  0.61827679  0.67277693  0.25028792     0.12500
H3856       H  0.66894809  0.67324942  0.27453027     0.14500
C3857       C  0.58675916  0.79216834  0.35514718    -0.05500
C3858       C  0.58010191  0.80414896  0.34298266    -0.05500
C3859       C  0.56841780  0.81716427  0.34835033    -0.23600
C3860       C  0.56316815  0.81831023  0.36593312     0.18600
C3861       C  0.56957519  0.80600985  0.37806379     0.15800
C3862       C  0.58127739  0.79318203  0.37263175    -0.18700
C3863       C  0.56426745  0.80669129  0.39553898    -0.20500
C3864       C  0.55275971  0.81950686  0.40107779    -0.13000
C3865       C  0.54645607  0.83204152  0.38933347     0.03600
C3866       C  0.55169413  0.83143538  0.37169563    -0.25200
H3867       H  0.58407982  0.80357446  0.32941997     0.08700
H3868       H  0.56356922  0.82637011  0.33878695     0.12300
H3869       H  0.58615770  0.78392997  0.38214361     0.12200
H3870       H  0.56902555  0.79729251  0.40495396     0.12000
H3871       H  0.54889150  0.81969874  0.41469908     0.12500
H3872       H  0.54669981  0.84094686  0.36250974     0.14500
C3873       C  0.53309547  0.59808280  0.39773509    -0.05500
C3874       C  0.54600574  0.59399013  0.41010156    -0.05500
C3875       C  0.55707407  0.57985388  0.40753108    -0.23600
C3876       C  0.55541285  0.56948033  0.39255928     0.18600
C3877       C  0.54200798  0.57295522  0.38036554     0.15800
C3878       C  0.53092649  0.58728596  0.38301239    -0.18700
C3879       C  0.54030222  0.56233326  0.36550273    -0.20500
C3880       C  0.55221586  0.54891153  0.36238808    -0.13000
C3881       C  0.56606815  0.54602433  0.37401102     0.03600
C3882       C  0.56734142  0.55609233  0.38928715    -0.25200
H3883       H  0.54787688  0.60202665  0.42160233     0.08700
H3884       H  0.56719495  0.57727850  0.41706916     0.12300
H3885       H  0.52093329  0.59026021  0.37345087     0.12200
H3886       H  0.53005635  0.56470818  0.35605162     0.12000
H3887       H  0.55108428  0.54133485  0.35048592     0.12500
H3888       H  0.57797070  0.55386679  0.39836375     0.14500
C3889       C  0.47131816  0.62882372  0.44289882    -0.05500
C3890       C  0.46930837  0.63849432  0.45836667    -0.05500
C3891       C  0.45540540  0.63507485  0.46970904    -0.23600
C3892       C  0.44335534  0.62186001  0.46579794     0.18600
C3893       C  0.44574744  0.61163599  0.45060291     0.15800
C3894       C  0.45965749  0.61517026  0.43930895    -0.18700
C3895       C  0.43393836  0.59829575  0.44668165    -0.20500
C3896       C  0.41963650  0.59531627  0.45747980    -0.13000
C3897       C  0.41675102  0.60567963  0.47235565     0.03600
C3898       C  0.42878995  0.61887843  0.47656496    -0.25200
H3899       H  0.47812711  0.64908645  0.46138510     0.08700
H3900       H  0.45387919  0.64299169  0.48134475     0.12300
H3901       H  0.46112516  0.60755038  0.42744738     0.12200
H3902       H  0.43562164  0.59030766  0.43511005     0.12000
H3903       H  0.41056988  0.58509829  0.45392951     0.12500
H3904       H  0.42671664  0.62692622  0.48803179     0.14500
C3905       C  0.54739356  0.67610264  0.39433294    -0.05500
C3906       C  0.55649851  0.68550714  0.40720916    -0.05500
C3907       C  0.56984850  0.69707052  0.40245614    -0.23600
C3908       C  0.57414227  0.69951767  0.38475473     0.18600
C3909       C  0.56510267  0.68990192  0.37183505     0.15800
C3910       C  0.55203636  0.67820881  0.37670739    -0.18700
C3911       C  0.56889723  0.69242618  0.35413415    -0.20500
C3912       C  0.58121745  0.70472511  0.34915388    -0.13000
C3913       C  0.59025402  0.71451638  0.36175738     0.03600
C3914       C  0.58691639  0.71166918  0.37962644    -0.25200
H3915       H  0.55317602  0.68405838  0.42088393     0.08700
H3916       H  0.57659166  0.70431723  0.41258497     0.12300
H3917       H  0.54513385  0.67104097  0.36661379     0.12200
H3918       H  0.56205173  0.68514532  0.34409223     0.12000
H3919       H  0.58361327  0.70668103  0.33533546     0.12500
H3920       H  0.59371729  0.71933066  0.38941090     0.14500
C3921       C  0.46868534  0.67408542  0.37947769    -0.05500
C3922       C  0.46419997  0.67176608  0.36180096    -0.05500
C3923       C  0.45246577  0.68312972  0.35359509    -0.23600
C3924       C  0.44486836  0.69689707  0.36298223     0.18600
C3925       C  0.44888140  0.69886947  0.38094176     0.15800
C3926       C  0.46077607  0.68758194  0.38898971    -0.18700
C3927       C  0.44107697  0.71222518  0.39058334    -0.20500
C3928       C  0.42957445  0.72370536  0.38252682    -0.13000
C3929       C  0.42577604  0.72229993  0.36458492     0.03600
C3930       C  0.43345907  0.70879595  0.35481200    -0.25200
H3931       H  0.47005812  0.66140317  0.35422952     0.08700
H3932       H  0.44946056  0.68124386  0.33986409     0.12300
H3933       H  0.46396094  0.68939273  0.40270850     0.12200
H3934       H  0.44394002  0.71386563  0.40438328     0.12000
H3935       H  0.42387705  0.73399233  0.39033935     0.12500
H3936       H  0.43049692  0.70750502  0.34099433     0.14500
C3937       C  0.36280690  0.67436608  0.77586147    -0.05500
C3938       C  0.35029943  0.67863514  0.78855611    -0.05500
C3939       C  0.35295709  0.69247915  0.80000722    -0.23600
C3940       C  0.36819666  0.70237640  0.79902185     0.18600
C3941       C  0.38068853  0.69869726  0.78597124     0.15800
C3942       C  0.37791467  0.68465484  0.77440546    -0.18700
C3943       C  0.39587834  0.70886637  0.78510325    -0.20500
C3944       C  0.39890650  0.72205228  0.79746350    -0.13000
C3945       C  0.38682181  0.72517987  0.81087810     0.03600
C3946       C  0.37132604  0.71553985  0.81129063    -0.25200
H3947       H  0.33852381  0.67100363  0.78991870     0.08700
H3948       H  0.34323187  0.69521487  0.80988239     0.12300
H3949       H  0.38761434  0.68151218  0.76462610     0.12200
H3950       H  0.40558356  0.70635035  0.77515477     0.12000
H3951       H  0.41096248  0.72934181  0.79693273     0.12500
H3952       H  0.36185774  0.71795827  0.82150948     0.14500
C3953       C  0.31750847  0.64675230  0.71248999    -0.05500
C3954       C  0.32032157  0.66241970  0.70347787    -0.05500
C3955       C  0.31022472  0.66672997  0.68895448    -0.23600
C3956       C  0.29734916  0.65526849  0.68295398     0.18600
C3957       C  0.29394388  0.63973170  0.69224332     0.15800
C3958       C  0.30390939  0.63567445  0.70714552    -0.18700
C3959       C  0.28117887  0.62820307  0.68597769    -0.20500
C3960       C  0.27240998  0.63169806  0.67030173    -0.13000
C3961       C  0.27620571  0.64681209  0.66071237     0.03600
C3962       C  0.28837586  0.65875833  0.66738902    -0.25200
H3963       H  0.33069261  0.67115302  0.70739946     0.08700
H3964       H  0.31293732  0.67873165  0.68202395     0.12300
H3965       H  0.30176635  0.62347357  0.71393144     0.12200
H3966       H  0.27833652  0.61624926  0.69292715     0.12000
H3967       H  0.26300776  0.62235657  0.66544271     0.12500
H3968       H  0.29131999  0.67053870  0.66015930     0.14500
C3969       C  0.40082201  0.53361286  0.59366649    -0.05500
C3970       C  0.41213942  0.54753919  0.59003008    -0.05500
C3971       C  0.41023389  0.55744278  0.57491101    -0.23600
C3972       C  0.39699362  0.55364591  0.56293698     0.18600
C3973       C  0.38556015  0.53957852  0.56612848     0.15800
C3974       C  0.38749602  0.52962019  0.58157276    -0.18700
C3975       C  0.37236786  0.53595344  0.55386500    -0.20500
C3976       C  0.37032540  0.54641258  0.53891290    -0.13000
C3977       C  0.38144617  0.56066285  0.53596083     0.03600
C3978       C  0.39489540  0.56397469  0.54797812    -0.25200
H3979       H  0.42250014  0.55094623  0.59902466     0.08700
H3980       H  0.41910321  0.56818398  0.57263888     0.12300
H3981       H  0.37870259  0.51888887  0.58416990     0.12200
H3982       H  0.36345569  0.52521888  0.55597822     0.12000
H3983       H  0.35976344  0.54366338  0.52993713     0.12500
H3984       H  0.40356078  0.57493631  0.54592479     0.14500
C3985       C  0.48112871  0.42358513  0.60025603    -0.05500
C3986       C  0.46802200  0.42811538  0.58827562    -0.05500
C3987       C  0.45716617  0.44223947  0.59147496    -0.23600
C3988       C  0.45922604  0.45211171  0.60671725     0.18600
C3989       C  0.47254505  0.44792561  0.61877320     0.15800
C3990       C  0.48345067  0.43363194  0.61546487    -0.18700
C3991       C  0.47446930  0.45794941  0.63402374    -0.20500
C3992       C  0.46301783  0.47169525  0.63746104    -0.13000
C3993       C  0.44949058  0.47552916  0.62571702     0.03600
C3994       C  0.44786035  0.46584602  0.61025499    -0.25200
H3995       H  0.46599198  0.42058331  0.57646078     0.08700
H3996       H  0.44702333  0.44531338  0.58211855     0.12300
H3997       H  0.49353800  0.43022130  0.62476855     0.12200
H3998       H  0.48458869  0.45495147  0.64342824     0.12000
H3999       H  0.46433515  0.47890021  0.64957635     0.12500
H4000       H  0.43742151  0.46871564  0.60114850     0.14500
C4001       C  0.40142413  0.54937433  0.67309407    -0.05500
C4002       C  0.41488784  0.55755697  0.68249303    -0.05500
C4003       C  0.41125636  0.57158446  0.69370116    -0.23600
C4004       C  0.39411567  0.57765281  0.69561522     0.18600
C4005       C  0.38065712  0.56959657  0.68586935     0.15800
C4006       C  0.38439123  0.55563213  0.67476220    -0.18700
C4007       C  0.36352116  0.57536060  0.68758768    -0.20500
C4008       C  0.35953182  0.58855310  0.69934091    -0.13000
C4009       C  0.37257516  0.59640112  0.70954170     0.03600
C4010       C  0.39000706  0.59124032  0.70735691    -0.25200
H4011       H  0.42815181  0.55296692  0.68134728     0.08700
H4012       H  0.42180094  0.57754059  0.70100906     0.12300
H4013       H  0.37389877  0.54950447  0.66748176     0.12200
H4014       H  0.35309274  0.56937666  0.68011672     0.12000
H4015       H  0.34605660  0.59243405  0.70071075     0.12500
H4016       H  0.40012692  0.59718159  0.71527649     0.14500
C4017       C  0.38411209  0.46123487  0.96300101    -0.05500
C4018       C  0.37278183  0.47523900  0.95994824    -0.05500
C4019       C  0.37615897  0.48707227  0.94642369    -0.23600
C4020       C  0.39091976  0.48504839  0.93579169     0.18600
C4021       C  0.40288145  0.47159167  0.93954743     0.15800
C4022       C  0.39944817  0.45987817  0.95313912    -0.18700
C4023       C  0.41767564  0.46949274  0.92910132    -0.20500
C4024       C  0.42015038  0.47999671  0.91445712    -0.13000
C4025       C  0.40793805  0.49286290  0.90999776     0.03600
C4026       C  0.39356841  0.49569133  0.92104538    -0.25200
H4027       H  0.36087866  0.47650968  0.96740412     0.08700
H4028       H  0.36689952  0.49738466  0.94385917     0.12300
H4029       H  0.40834095  0.44918741  0.95550879     0.12200
H4030       H  0.42704103  0.45933829  0.93190952     0.12000
H4031       H  0.43142139  0.47766947  0.90629010     0.12500
H4032       H  0.38412708  0.50564738  0.91779655     0.14500
C4033       C  0.45500341  0.55013912  0.87220712    -0.05500
C4034       C  0.46840754  0.55224779  0.85989826    -0.05500
C4035       C  0.48084058  0.56550444  0.86192923    -0.23600
C4036       C  0.48015460  0.57680869  0.87637820     0.18600
C4037       C  0.46703528  0.57435072  0.88909377     0.15800
C4038       C  0.45455747  0.56116736  0.88688089    -0.18700
C4039       C  0.46634498  0.58535053  0.90367781    -0.20500
C4040       C  0.47815505  0.59902880  0.90542717    -0.13000
C4041       C  0.49089047  0.60212556  0.89260264     0.03600
C4042       C  0.49204085  0.59073009  0.87819391    -0.25200
H4043       H  0.46894753  0.54399817  0.84842055     0.08700
H4044       H  0.49081109  0.56709471  0.85204658     0.12300
H4045       H  0.44429322  0.55966811  0.89648793     0.12200
H4046       H  0.45646565  0.58355745  0.91362174     0.12000
H4047       H  0.47703339  0.60747046  0.91672686     0.12500
H4048       H  0.50186289  0.59290768  0.86826609     0.14500
C4049       C  0.39457594  0.55670377  0.83124777    -0.05500
C4050       C  0.40740731  0.56524269  0.82141258    -0.05500
C4051       C  0.40291805  0.57776226  0.80914743    -0.23600
C4052       C  0.38544221  0.58180046  0.80622200     0.18600
C4053       C  0.37229415  0.57370347  0.81627597     0.15800
C4054       C  0.37698285  0.56130293  0.82904486    -0.18700
C4055       C  0.35477977  0.57777695  0.81285551    -0.20500
C4056       C  0.35041673  0.58932598  0.79930491    -0.13000
C4057       C  0.36352426  0.59709094  0.78914354     0.03600
C4058       C  0.38099334  0.59345458  0.79296373    -0.25200
H4059       H  0.42103575  0.56202843  0.82305527     0.08700
H4060       H  0.41312560  0.58393987  0.80158177     0.12300
H4061       H  0.36701942  0.55469128  0.83656808     0.12200
H4062       H  0.34446702  0.57176433  0.82039560     0.12000
H4063       H  0.33684747  0.59203135  0.79665186     0.12500
H4064       H  0.39126409  0.59939288  0.78527475     0.14500
C4065       C  0.37513924  0.34528674  0.73084178    -0.05500
C4066       C  0.39213418  0.33859703  0.73174491    -0.05500
C4067       C  0.39711435  0.32451036  0.72118437    -0.23600
C4068       C  0.38518240  0.31691230  0.70950078     0.18600
C4069       C  0.36792496  0.32325501  0.70894631     0.15800
C4070       C  0.36300530  0.33722936  0.71968560    -0.18700
C4071       C  0.35597822  0.31597100  0.69717436    -0.20500
C4072       C  0.36121807  0.30300872  0.68553311    -0.13000
C4073       C  0.37838897  0.29679112  0.68564786     0.03600
C4074       C  0.39028450  0.30352776  0.69794939    -0.25200
H4075       H  0.40170864  0.34455711  0.74026934     0.08700
H4076       H  0.41038937  0.31984808  0.72184733     0.12300
H4077       H  0.34983965  0.34220405  0.71891284     0.12200
H4078       H  0.34270690  0.32065976  0.69660545     0.12000
H4079       H  0.35186019  0.29801453  0.67617257     0.12500
H4080       H  0.40362175  0.29897570  0.69795686     0.14500
C4081       C  0.32272362  0.37178837  0.78884423    -0.05500
C4082       C  0.32593032  0.35631206  0.79805030    -0.05500
C4083       C  0.31479345  0.35093139  0.81137056    -0.23600
C4084       C  0.30041626  0.36112123  0.81597406     0.18600
C4085       C  0.29668433  0.37644596  0.80645759     0.15800
C4086       C  0.30772688  0.38154088  0.79269963    -0.18700
C4087       C  0.28244484  0.38676039  0.81142065    -0.20500
C4088       C  0.27244494  0.38227781  0.82605164    -0.13000
C4089       C  0.27639672  0.36730020  0.83581189     0.03600
C4090       C  0.29017013  0.35657978  0.83041117    -0.25200
H4091       H  0.33734089  0.34855197  0.79520657     0.08700
H4092       H  0.31778799  0.33911161  0.81849190     0.12300
H4093       H  0.30522728  0.39356027  0.78571571     0.12200
H4094       H  0.27935650  0.39855663  0.80430627     0.12000
H4095       H  0.26187592  0.39073233  0.82996539     0.12500
H4096       H  0.29336498  0.34500122  0.83785210     0.14500
C4097       C  0.36540201  0.42402537  0.71380735    -0.05500
C4098       C  0.35157452  0.43392611  0.70704265    -0.05500
C4099       C  0.35462413  0.44650473  0.69405748    -0.23600
C4100       C  0.37156089  0.44946280  0.68776062     0.18600
C4101       C  0.38535920  0.43911990  0.69421082     0.15800
C4102       C  0.38216056  0.42645536  0.70694374    -0.18700
C4103       C  0.40234032  0.44200355  0.68835567    -0.20500
C4104       C  0.40584157  0.45553768  0.67681745    -0.13000
C4105       C  0.39242714  0.46629210  0.67058242     0.03600
C4106       C  0.37515137  0.46290968  0.67568566    -0.25200
H4107       H  0.33853187  0.43225395  0.71209502     0.08700
H4108       H  0.34382104  0.45423665  0.68929078     0.12300
H4109       H  0.39295452  0.41884506  0.71195880     0.12200
H4110       H  0.41303643  0.43411806  0.69312661     0.12000
H4111       H  0.41920617  0.45778424  0.67291780     0.12500
H4112       H  0.36474245  0.47120676  0.67098397     0.14500
C4113       C  0.38376945  0.42493554  0.79175384    -0.05500
C4114       C  0.40183075  0.42541751  0.79463294    -0.05500
C4115       C  0.40924751  0.43834382  0.80530352    -0.23600
C4116       C  0.39870686  0.45093538  0.81339461     0.18600
C4117       C  0.38049015  0.45022848  0.81085711     0.15800
C4118       C  0.37319254  0.43734035  0.80007099    -0.18700
C4119       C  0.36980932  0.46254253  0.81899781    -0.20500
C4120       C  0.37705200  0.47558458  0.82942154    -0.13000
C4121       C  0.39515777  0.47672233  0.83191577     0.03600
C4122       C  0.40597565  0.46425991  0.82387229    -0.25200
H4123       H  0.41025500  0.41602929  0.78832930     0.08700
H4124       H  0.42323016  0.43857826  0.80710312     0.12300
H4125       H  0.35922958  0.43707472  0.79802688     0.12200
H4126       H  0.35581992  0.46214808  0.81723929     0.12000
H4127       H  0.36838872  0.48494073  0.83544892     0.12500
H4128       H  0.41994139  0.46493394  0.82573910     0.14500
C4129       C  0.97170021  0.38673493  0.44220164    -0.05500
C4130       C  0.96635634  0.40418977  0.44257680    -0.05500
C4131       C  0.95242603  0.40940449  0.45300612    -0.23600
C4132       C  0.94326273  0.39716559  0.46296388     0.18600
C4133       C  0.94859205  0.37955650  0.46296046     0.15800
C4134       C  0.96298973  0.37445757  0.45271329    -0.18700
C4135       C  0.93905415  0.36736896  0.47276986    -0.20500
C4136       C  0.92419385  0.37253297  0.48210450    -0.13000
C4137       C  0.91864448  0.38996137  0.48179389     0.03600
C4138       C  0.92849426  0.40222810  0.47243267    -0.25200
H4139       H  0.97283404  0.41379996  0.43452121     0.08700
H4140       H  0.94849601  0.42294610  0.45287628     0.12300
H4141       H  0.96684389  0.36089727  0.45222968     0.12200
H4142       H  0.94287495  0.35379960  0.47293574     0.12000
H4143       H  0.91680670  0.36283241  0.48919767     0.12500
H4144       H  0.92439330  0.41572297  0.47210380     0.14500
C4145       C  0.89108734  0.44292710  0.53771406    -0.05500
C4146       C  0.90610061  0.43889140  0.54736244    -0.05500
C4147       C  0.91166674  0.44967854  0.56095433    -0.23600
C4148       C  0.90207004  0.46450991  0.56544473     0.18600
C4149       C  0.88717626  0.46901315  0.55555921     0.15800
C4150       C  0.88193967  0.45833444  0.54149581    -0.18700
C4151       C  0.87741609  0.48368169  0.56042730    -0.20500
C4152       C  0.88198678  0.49336027  0.57530362    -0.13000
C4153       C  0.89653329  0.48869096  0.58541434     0.03600
C4154       C  0.90675360  0.47447686  0.58010607    -0.25200
H4155       H  0.91338737  0.42715120  0.54457923     0.08700
H4156       H  0.92314911  0.44607638  0.56835522     0.12300
H4157       H  0.87026337  0.46146594  0.53417410     0.12200
H4158       H  0.86597199  0.48738023  0.55302404     0.12000
H4159       H  0.87397461  0.50432452  0.57906808     0.12500
H4160       H  0.91803022  0.47074326  0.58777283     0.14500
C4161       C  0.77754077  0.35930646  0.65474151    -0.05500
C4162       C  0.79153163  0.34818689  0.65861350    -0.05500
C4163       C  0.80222078  0.35132606  0.67301623    -0.23600
C4164       C  0.79911651  0.36563848  0.68391270     0.18600
C4165       C  0.78490294  0.37678644  0.68045434     0.15800
C4166       C  0.77420635  0.37359591  0.66580162    -0.18700
C4167       C  0.78184297  0.39101087  0.69161170    -0.20500
C4168       C  0.79303191  0.39437425  0.70573879    -0.13000
C4169       C  0.80750514  0.38364509  0.70883105     0.03600
C4170       C  0.81027109  0.36914285  0.69799582    -0.25200
H4171       H  0.79438166  0.33709211  0.65034114     0.08700
H4172       H  0.81302870  0.34264043  0.67553047     0.12300
H4173       H  0.76343160  0.38222802  0.66296704     0.12200
H4174       H  0.77099293  0.39968188  0.68924598     0.12000
H4175       H  0.79072135  0.40569397  0.71386713     0.12500
H4176       H  0.82136059  0.36074680  0.70030780     0.14500
C4177       C  0.65846594  0.28220205  0.64308975    -0.05500
C4178       C  0.66320498  0.29461463  0.65574894    -0.05500
C4179       C  0.67848921  0.30420763  0.65405268    -0.23600
C4180       C  0.68934998  0.30163819  0.63961577     0.18600
C4181       C  0.68496479  0.28899116  0.62688621     0.15800
C4182       C  0.66951243  0.27929072  0.62871176    -0.18700
C4183       C  0.69595298  0.28659717  0.61242316    -0.20500
C4184       C  0.71076374  0.29704950  0.61031914    -0.13000
C4185       C  0.71481311  0.31003363  0.62264734     0.03600
C4186       C  0.70423041  0.31195192  0.63746544    -0.25200
H4187       H  0.65497859  0.29705589  0.66697391     0.08700
H4188       H  0.68168477  0.31383680  0.66392861     0.12300
H4189       H  0.66598404  0.26972202  0.61888081     0.12200
H4190       H  0.69285608  0.27696588  0.60251961     0.12000
H4191       H  0.71863929  0.29546519  0.59869406     0.12500
H4192       H  0.70720603  0.32196364  0.64703675     0.14500
C4193       C  0.78876118  0.35729626  0.57447413    -0.05500
C4194       C  0.80209162  0.34521718  0.57122830    -0.05500
C4195       C  0.81617401  0.34967014  0.56041191    -0.23600
C4196       C  0.81705029  0.36623145  0.55262613     0.18600
C4197       C  0.80340265  0.37819651  0.55558628     0.15800
C4198       C  0.78944863  0.37366100  0.56638457    -0.18700
C4199       C  0.80396251  0.39468615  0.54791281    -0.20500
C4200       C  0.81799659  0.39944949  0.53748673    -0.13000
C4201       C  0.83183199  0.38786670  0.53446675     0.03600
C4202       C  0.83128069  0.37115737  0.54205490    -0.25200
H4203       H  0.80183291  0.33252444  0.57737086     0.08700
H4204       H  0.82644248  0.34026413  0.55829995     0.12300
H4205       H  0.77918105  0.38305187  0.56868870     0.12200
H4206       H  0.79357422  0.40397046  0.55005223     0.12000
H4207       H  0.81802064  0.41235812  0.53180936     0.12500
H4208       H  0.84184069  0.36210768  0.53979912     0.14500
C4209       C  0.59608332  0.40537589  0.51365719    -0.05500
C4210       C  0.58703296  0.39021039  0.50878061    -0.05500
C4211       C  0.57154468  0.38556161  0.51720410    -0.23600
C4212       C  0.56490213  0.39591780  0.53076714     0.18600
C4213       C  0.57359692  0.41152078  0.53532821     0.15800
C4214       C  0.58898274  0.41623037  0.52662830    -0.18700
C4215       C  0.56720079  0.42175882  0.54906212    -0.20500
C4216       C  0.55291219  0.41614583  0.55881530    -0.13000
C4217       C  0.54449163  0.40038187  0.55480040     0.03600
C4218       C  0.55021937  0.39057246  0.54037597    -0.25200
H4219       H  0.59217006  0.38169446  0.49874827     0.08700
H4220       H  0.56505096  0.37357941  0.51346891     0.12300
H4221       H  0.59578995  0.42802583  0.53044778     0.12200
H4222       H  0.57365509  0.43379917  0.55269839     0.12000
H4223       H  0.54869761  0.42394543  0.56982892     0.12500
H4224       H  0.54389985  0.37831306  0.53727329     0.14500
C4225       C  0.63422535  0.45776831  0.46048591    -0.05500
C4226       C  0.64601450  0.47152409  0.45788560    -0.05500
C4227       C  0.64372902  0.48312389  0.44387868    -0.23600
C4228       C  0.62967440  0.48105141  0.43225244     0.18600
C4229       C  0.61746413  0.46762524  0.43534806     0.15800
C4230       C  0.61973624  0.45626746  0.44942637    -0.18700
C4231       C  0.60343332  0.46527670  0.42395812    -0.20500
C4232       C  0.60169320  0.47576324  0.40926913    -0.13000
C4233       C  0.61391471  0.48888575  0.40559638     0.03600
C4234       C  0.62779857  0.49171466  0.41733971    -0.25200
H4235       H  0.65732324  0.47289140  0.46623877     0.08700
H4236       H  0.65321890  0.49336765  0.44183723     0.12300
H4237       H  0.61049486  0.44575151  0.45135241     0.12200
H4238       H  0.59395423  0.45505426  0.42620784     0.12000
H4239       H  0.59083659  0.47333550  0.40056112     0.12500
H4240       H  0.63726495  0.50184668  0.41468622     0.14500
C4241       C  0.67417100  0.40590250  0.53721771    -0.05500
C4242       C  0.68433672  0.41827602  0.54617707    -0.05500
C4243       C  0.69526995  0.41311196  0.55999669    -0.23600
C4244       C  0.69622083  0.39550584  0.56497164     0.18600
C4245       C  0.68551617  0.38322884  0.55630444     0.15800
C4246       C  0.67462612  0.38849528  0.54267575    -0.18700
C4247       C  0.68624650  0.36565953  0.56091039    -0.20500
C4248       C  0.69816486  0.36001743  0.57331633    -0.13000
C4249       C  0.70951114  0.37180869  0.58152881     0.03600
C4250       C  0.70810801  0.38971870  0.57782011    -0.25200
H4251       H  0.68413814  0.43180230  0.54223703     0.08700
H4252       H  0.70329020  0.42279508  0.56648041     0.12300
H4253       H  0.66675973  0.37881468  0.53597284     0.12200
H4254       H  0.67799841  0.35614223  0.55445887     0.12000
H4255       H  0.69888697  0.34621798  0.57612258     0.12500
H4256       H  0.71688009  0.39889039  0.58408132     0.14500
C4257       C  0.73590985  0.36356157  0.33948882    -0.05500
C4258       C  0.72361239  0.35052449  0.33574497    -0.05500
C4259       C  0.71257534  0.35196808  0.32136805    -0.23600
C4260       C  0.71352795  0.36653982  0.31046422     0.18600
C4261       C  0.72608609  0.37961267  0.31375510     0.15800
C4262       C  0.73729058  0.37801786  0.32827213    -0.18700
C4263       C  0.72689653  0.39415407  0.30265248    -0.20500
C4264       C  0.71503831  0.39593869  0.28880336    -0.13000
C4265       C  0.70216336  0.38325089  0.28592183     0.03600
C4266       C  0.70174896  0.36842949  0.29661909    -0.25200
H4267       H  0.72238800  0.33920528  0.34407657     0.08700
H4268       H  0.70307111  0.34179687  0.31895177     0.12300
H4269       H  0.74674612  0.38814377  0.33104897     0.12200
H4270       H  0.73644501  0.40431161  0.30490225     0.12000
H4271       H  0.71551793  0.40752306  0.28076809     0.12500
H4272       H  0.69189378  0.35852507  0.29446474     0.14500
C4273       C  0.79348830  0.31434846  0.37269124    -0.05500
C4274       C  0.79789842  0.30224244  0.38572214    -0.05500
C4275       C  0.81160318  0.29048580  0.38306811    -0.23600
C4276       C  0.82114881  0.29080741  0.36740838     0.18600
C4277       C  0.81603940  0.30232872  0.35393910     0.15800
C4278       C  0.80218187  0.31380126  0.35659184    -0.18700
C4279       C  0.82545685  0.30294384  0.33833086    -0.20500
C4280       C  0.84039295  0.29294660  0.33635898    -0.13000
C4281       C  0.84616640  0.28200799  0.34988166     0.03600
C4282       C  0.83616334  0.28051976  0.36522447    -0.25200
H4283       H  0.79139173  0.30249300  0.39827016     0.08700
H4284       H  0.81521899  0.28169680  0.39353847     0.12300
H4285       H  0.79881631  0.32304492  0.34641774     0.12200
H4286       H  0.82161891  0.31163168  0.32785157     0.12000
H4287       H  0.84769712  0.29413469  0.32431793     0.12500
H4288       H  0.84044402  0.27200452  0.37568087     0.14500
C4289       C  0.72886789  0.37609913  0.41973442    -0.05500
C4290       C  0.73160748  0.39301404  0.42617723    -0.05500
C4291       C  0.71949763  0.40087856  0.43710565    -0.23600
C4292       C  0.70428714  0.39204084  0.44173968     0.18600
C4293       C  0.70124213  0.37499369  0.43541948     0.15800
C4294       C  0.71368476  0.36700770  0.42449823    -0.18700
C4295       C  0.68578191  0.36640318  0.44011657    -0.20500
C4296       C  0.67365822  0.37455381  0.45113658    -0.13000
C4297       C  0.67683926  0.39139443  0.45761751     0.03600
C4298       C  0.69213873  0.40006055  0.45268983    -0.25200
H4299       H  0.74320419  0.40025484  0.42271147     0.08700
H4300       H  0.72200179  0.41394404  0.44186563     0.12300
H4301       H  0.71140290  0.35400956  0.41943351     0.12200
H4302       H  0.68312155  0.35336669  0.43536682     0.12000
H4303       H  0.66193530  0.36762766  0.45476608     0.12500
H4304       H  0.69472631  0.41309140  0.45753009     0.14500
C4305       C  0.84442510  0.40544530  0.45674687    -0.05500
C4306       C  0.83114729  0.41753405  0.45338284    -0.05500
C4307       C  0.81930646  0.41468417  0.43970078    -0.23600
C4308       C  0.82062269  0.39970980  0.42921153     0.18600
C4309       C  0.83474488  0.38818952  0.43180560     0.15800
C4310       C  0.84658176  0.39121330  0.44542888    -0.18700
C4311       C  0.83611560  0.37312072  0.42157582    -0.20500
C4312       C  0.82284325  0.36867997  0.40995783    -0.13000
C4313       C  0.80827898  0.37946914  0.40797559     0.03600
C4314       C  0.80752247  0.39538125  0.41703882    -0.25200
H4315       H  0.82931943  0.42862860  0.46193603     0.08700
H4316       H  0.80866373  0.42374171  0.43786156     0.12300
H4317       H  0.85692748  0.38192690  0.44784155     0.12200
H4318       H  0.84692571  0.36424222  0.42331148     0.12000
H4319       H  0.82354191  0.35636542  0.40306435     0.12500
H4320       H  0.79613260  0.40359571  0.41570482     0.14500
loop_ 
_geom_bond_atom_site_label_1 
_geom_bond_atom_site_label_2 
_geom_bond_distance 
_geom_bond_site_symmetry_2 
_ccdc_geom_bond_type 
In1           O3   2.200       .  S
In1           O4   2.272       .  S
In1          O12   2.213       .  S
In1           O6   2.260       .  S
In1           O8   2.267       .  S
In1           O9   2.256       .  S
In1          O10   2.212       .  S
In1          O13   2.208       .  S
C2            O8   1.268       .  A
C2           O10   1.261       .  A
C2         C4313   1.469       .  S
O3           C11   1.259       .  A
O4           C11   1.268       .  A
C5           O12   1.263       .  A
C5            O6   1.268       .  A
C5         C4257   1.478       .  S
C7            O9   1.269       .  A
C7           O13   1.264       .  A
C7         C4273   1.476       .  S
C11        C4289   1.475       .  S
In14         O16   2.211       .  S
In14         O17   2.269       .  S
In14         O25   2.240       .  S
In14         O19   2.249       .  S
In14         O21   2.271       .  S
In14         O22   2.277       .  S
In14         O23   2.219       .  S
In14         O26   2.209       .  S
C15          O21   1.265       .  A
C15          O23   1.260       .  A
C15        C4297   1.480       .  S
O16          C24   1.260       .  A
O17          C24   1.266       .  A
C18          O25   1.264       .  A
C18          O19   1.266       .  A
C18        C4209   1.483       .  S
C20          O22   1.266       .  A
C20          O26   1.260       .  A
C20        C4241   1.481       .  S
C24        C4225   1.478       .  S
In27         O29   2.210       .  S
In27         O30   2.271       .  S
In27         O38   2.221       .  S
In27         O32   2.261       .  S
In27         O34   2.277       .  S
In27         O35   2.255       .  S
In27         O36   2.197       .  S
In27         O39   2.223       .  S
C28          O34   1.269       .  A
C28          O36   1.261       .  A
C28        C4249   1.475       .  S
O29          C37   1.260       .  A
O30          C37   1.266       .  A
C31          O38   1.262       .  A
C31          O32   1.267       .  A
C31        C4161   1.481       .  S
C33          O35   1.267       .  A
C33          O39   1.263       .  A
C33        C4185   1.478       .  S
C37        C4193   1.479       .  S
In40         O42   2.224       .  S
In40         O43   2.262       .  S
In40         O51   2.218       .  S
In40         O45   2.266       .  S
In40         O47   2.283       .  S
In40         O48   2.262       .  S
In40         O49   2.215       .  S
In40         O52   2.223       .  S
C41          O47   1.267       .  A
C41          O49   1.259       .  A
C41        C4201   1.483       .  S
O42          C50   1.262       .  A
O43          C50   1.266       .  A
C44          O51   1.264       .  A
C44          O45   1.269       .  A
C44        C4137   1.484       .  S
C46          O48   1.266       .  A
C46          O52   1.262       .  A
C46        C4305   1.477       .  S
C50        C4145   1.477       .  S
In53         O55   2.214       .  S
In53         O56   2.279       .  S
In53         O64   2.232       .  S
In53         O58   2.261       .  S
In53         O60   2.269       .  S
In53         O61   2.260       .  S
In53         O62   2.232       .  S
In53         O65   2.221       .  S
C54          O60   1.266       .  A
C54          O62   1.261       .  A
C54        C4113   1.484       .  S
O55          C63   1.260       .  A
O56          C63   1.267       .  A
C57          O64   1.263       .  A
C57          O58   1.266       .  A
C57        C4065   1.483       .  S
C59          O61   1.267       .  A
C59          O65   1.262       .  A
C59        C4081   1.477       .  S
C63        C4097   1.483       .  S
In66         O68   2.224       .  S
In66         O69   2.261       .  S
In66         O77   2.218       .  S
In66         O71   2.253       .  S
In66         O73   2.266       .  S
In66         O74   2.274       .  S
In66         O75   2.188       .  S
In66         O78   2.216       .  S
C67          O73   1.271       .  A
C67          O75   1.263       .  A
C67        C4049   1.473       .  S
O68          C76   1.265       .  A
O69          C76   1.271       .  A
C70          O77   1.265       .  A
C70          O71   1.269       .  A
C70        C4025   1.481       .  S
C72          O74   1.270       .  A
C72          O78   1.263       .  A
C72        C4121   1.486       .  S
C76        C4033   1.484       .  S
In79         O81   2.207       .  S
In79         O82   2.246       .  S
In79         O90   2.215       .  S
In79         O84   2.280       .  S
In79         O86   2.285       .  S
In79         O87   2.256       .  S
In79         O88   2.205       .  S
In79         O91   2.217       .  S
C80          O86   1.270       .  A
C80          O88   1.259       .  A
C80        C4105   1.479       .  S
O81          C89   1.264       .  A
O82          C89   1.267       .  A
C83          O90   1.263       .  A
C83          O84   1.270       .  A
C83        C3969   1.488       .  S
C85          O87   1.266       .  A
C85          O91   1.264       .  A
C85        C4001   1.478       .  S
C89        C3993   1.471       .  S
In92         O94   2.200       .  S
In92         O95   2.264       .  S
In92        O103   2.201       .  S
In92         O97   2.256       .  S
In92         O99   2.273       .  S
In92        O100   2.249       .  S
In92        O101   2.186       .  S
In92        O104   2.214       .  S
C93          O99   1.271       .  A
C93         O101   1.261       .  A
C93        C4009   1.474       .  S
O94         C102   1.263       .  A
O95         C102   1.269       .  A
C96         O103   1.265       .  A
C96          O97   1.271       .  A
C96        C3937   1.479       .  S
C98         O100   1.270       .  A
C98         O104   1.265       .  A
C98        C3953   1.477       .  S
C102       C4057   1.479       .  S
In105       O107   2.213       .  S
In105       O108   2.255       .  S
In105       O116   2.219       .  S
In105       O110   2.254       .  S
In105       O112   2.261       .  S
In105       O113   2.272       .  S
In105       O114   2.225       .  S
In105       O117   2.206       .  S
C106        O112   1.268       .  A
C106        O114   1.263       .  A
C106       C3921   1.483       .  S
O107        C115   1.263       .  A
O108        C115   1.269       .  A
C109        O116   1.263       .  A
C109        O110   1.268       .  A
C109       C3873   1.479       .  S
C111        O113   1.269       .  A
C111        O117   1.262       .  A
C111       C3905   1.481       .  S
C115       C3889   1.479       .  S
In118       O120   2.206       .  S
In118       O121   2.275       .  S
In118       O129   2.206       .  S
In118       O123   2.264       .  S
In118       O125   2.261       .  S
In118       O126   2.260       .  S
In118       O127   2.201       .  S
In118       O130   2.225       .  S
C119        O125   1.270       .  A
C119        O127   1.262       .  A
C119       C3913   1.475       .  S
O120        C128   1.262       .  A
O121        C128   1.270       .  A
C122        O129   1.265       .  A
C122        O123   1.270       .  A
C122       C3825   1.481       .  S
C124        O126   1.270       .  A
C124        O130   1.264       .  A
C124       C3841   1.481       .  S
C128       C3857   1.483       .  S
In131       O133   2.201       .  S
In131       O134   2.267       .  S
In131       O142   2.214       .  S
In131       O136   2.249       .  S
In131       O138   2.253       .  S
In131       O139   2.279       .  S
In131       O140   2.197       .  S
In131       O143   2.186       .  S
C132        O138   1.271       .  A
C132        O140   1.265       .  A
C132       C3865   1.475       .  S
O133        C141   1.265       .  A
O134        C141   1.272       .  A
C135        O142   1.267       .  A
C135        O136   1.269       .  A
C135       C3777   1.480       .  S
C137        O139   1.273       .  A
C137        O143   1.263       .  A
C137       C3809   1.483       .  S
C141       C3793   1.483       .  S
In144       O146   2.209       .  S
In144       O147   2.276       .  S
In144       O155   2.225       .  S
In144       O149   2.249       .  S
In144       O151   2.270       .  S
In144       O152   2.268       .  S
In144       O153   2.203       .  S
In144       O156   2.219       .  S
C145        O151   1.269       .  A
C145        O153   1.263       .  A
C145       C3817   1.477       .  S
O146        C154   1.262       .  A
O147        C154   1.271       .  A
C148        O155   1.264       .  A
C148        O149   1.268       .  A
C148       C3745   1.480       .  S
C150        O152   1.270       .  A
C150        O156   1.264       .  A
C150       C3761   1.483       .  S
C154       C3929   1.482       .  S
In157       O159   2.203       .  S
In157       O160   2.254       .  S
In157       O168   2.226       .  S
In157       O162   2.259       .  S
In157       O164   2.273       .  S
In157       O165   2.269       .  S
In157       O166   2.211       .  S
In157       O169   2.213       .  S
C158        O164   1.270       .  A
C158        O166   1.261       .  A
C158       C3737   1.478       .  S
O159        C167   1.263       .  A
O160        C167   1.270       .  A
C161        O168   1.265       .  A
C161        O162   1.270       .  A
C161       C3681   1.485       .  S
C163        O165   1.269       .  A
C163        O169   1.263       .  A
C163       C3713   1.482       .  S
C167       C3697   1.471       .  S
In170       O172   2.224   1_655  S
In170       O173   2.261   1_655  S
In170       O181   2.223   1_655  S
In170       O175   2.268   1_655  S
In170       O177   2.279       .  S
In170       O178   2.265       .  S
In170       O179   2.217       .  S
In170       O182   2.235       .  S
C171        O177   1.267       .  A
C171        O179   1.261       .  A
C171       C3665   1.484       .  S
O172        C180   1.261       .  A
O173        C180   1.266       .  A
C174        O181   1.261       .  A
C174        O175   1.267       .  A
C174       C3633   1.483       .  S
C176        O178   1.265       .  A
C176        O182   1.263       .  A
C176       C3657   1.485       .  S
C180       C3729   1.480       .  S
In183       O185   2.224       .  S
In183       O186   2.261       .  S
In183       O194   2.209       .  S
In183       O188   2.266       .  S
In183       O190   2.275       .  S
In183       O191   2.271       .  S
In183       O192   2.197       .  S
In183       O195   2.214       .  S
C184        O190   1.270       .  A
C184        O192   1.262       .  A
C184       C3625   1.476       .  S
O185        C193   1.264       .  A
O186        C193   1.269       .  A
C187        O194   1.263       .  A
C187        O188   1.270       .  A
C187       C3585   1.482       .  S
C189        O191   1.269       .  A
C189        O195   1.262       .  A
C189       C3673   1.481       .  S
C193       C3601   1.481       .  S
In196       O198   2.191   1_455  S
In196       O199   2.273   1_455  S
In196       O207   2.222   1_455  S
In196       O201   2.251       .  S
In196       O203   2.286       .  S
In196       O204   2.258       .  S
In196       O205   2.220       .  S
In196       O208   2.221       .  S
C197        O203   1.268       .  A
C197        O205   1.261       .  A
C197       C3721   1.487       .  S
O198        C206   1.262       .  A
O199        C206   1.269       .  A
C200        O207   1.264   1_455  A
C200        O201   1.270       .  A
C200       C3553   1.480   1_455  S
C202        O204   1.266       .  A
C202        O208   1.261       .  A
C202       C3577   1.475       .  S
C206       C3617   1.479       .  S
In209       O211   2.214       .  S
In209       O212   2.257       .  S
In209       O220   2.205       .  S
In209       O214   2.268       .  S
In209       O216   2.276       .  S
In209       O217   2.274       .  S
In209       O218   2.198       .  S
In209       O221   2.201       .  S
C210        O216   1.272       .  A
C210        O218   1.263       .  A
C210       C3545   1.479       .  S
O211        C219   1.265       .  A
O212        C219   1.270       .  A
C213        O220   1.265       .  A
C213        O214   1.272       .  A
C213       C3505   1.485       .  S
C215        O217   1.270       .  A
C215        O221   1.263       .  A
C215       C3521   1.480       .  S
C219       C4073   1.479       .  S
In222       O224   2.199       .  S
In222       O225   2.259       .  S
In222       O233   2.208       .  S
In222       O227   2.244       .  S
In222       O229   2.281       .  S
In222       O230   2.259       .  S
In222       O231   2.182       .  S
In222       O234   2.215       .  S
C223        O229   1.270       .  A
C223        O231   1.261       .  A
C223       C3529   1.480       .  S
O224        C232   1.262       .  A
O225        C232   1.270       .  A
C226        O233   1.264       .  A
C226        O227   1.269       .  A
C226       C3457   1.475       .  S
C228        O230   1.268       .  A
C228        O234   1.264       .  A
C228       C3481   1.477       .  S
C232       C3489   1.476       .  S
In235       O237   2.218       .  S
In235       O238   2.261       .  S
In235       O246   2.210       .  S
In235       O240   2.253       .  S
In235       O242   2.265       .  S
In235       O243   2.267       .  S
In235       O244   2.212       .  S
In235       O247   2.209       .  S
C236        O242   1.266       .  A
C236        O244   1.260       .  A
C236       C3497   1.475       .  S
O237        C245   1.262       .  A
O238        C245   1.267       .  A
C239        O246   1.264       .  A
C239        O240   1.268       .  A
C239       C4177   1.478       .  S
C241        O243   1.267       .  A
C241        O247   1.261       .  A
C241       C3441   1.479       .  S
C245       C3433   1.476       .  S
In248       O250   2.206       .  S
In248       O251   2.261       .  S
In248       O259   2.198       .  S
In248       O253   2.238       .  S
In248       O255   2.258       .  S
In248       O256   2.256       .  S
In248       O257   2.193       .  S
In248       O260   2.218       .  S
C249        O255   1.270       .  A
C249        O257   1.263       .  A
C249       C3449   1.472       .  S
O250        C258   1.264       .  A
O251        C258   1.271       .  A
C252        O259   1.265       .  A
C252        O253   1.271       .  A
C252       C3985   1.473       .  S
C254        O256   1.270       .  A
C254        O260   1.264       .  A
C254       C4217   1.480       .  S
C258       C3537   1.482       .  S
In261       O263   2.221       .  S
In261       O264   2.251       .  S
In261       O272   2.212       .  S
In261       O266   2.250       .  S
In261       O268   2.253       .  S
In261       O269   2.270       .  S
In261       O270   2.214       .  S
In261       O273   2.189       .  S
C262        O268   1.267       .  A
C262        O270   1.262       .  A
C262       C3409   1.476       .  S
O263        C271   1.262       .  A
O264        C271   1.268       .  A
C265        O272   1.264       .  A
C265        O266   1.267       .  A
C265       C3361   1.477       .  S
C267        O269   1.269       .  A
C267        O273   1.261       .  A
C267       C3393   1.476       .  S
C271       C3377   1.478       .  S
In274       O276   2.207       .  S
In274       O277   2.280   1_545  S
In274       O285   2.208   1_545  S
In274       O279   2.256       .  S
In274       O281   2.263       .  S
In274       O282   2.261       .  S
In274       O283   2.205       .  S
In274       O286   2.221       .  S
C275        O281   1.266       .  A
C275        O283   1.260       .  A
C275       C3401   1.467       .  S
O276        C284   1.260   1_545  A
O277        C284   1.267       .  A
C278        O285   1.264       .  A
C278        O279   1.266   1_565  A
C278       C3321   1.477       .  S
C280        O282   1.268       .  A
C280        O286   1.263       .  A
C280       C3329   1.479       .  S
C284       C3353   1.480       .  S
In287       O289   2.214       .  S
In287       O290   2.246       .  S
In287       O298   2.210       .  S
In287       O292   2.272       .  S
In287       O294   2.275       .  S
In287       O295   2.247       .  S
In287       O296   2.216       .  S
In287       O299   2.193       .  S
C288        O294   1.269       .  A
C288        O296   1.261       .  A
C288       C3345   1.483       .  S
O289        C297   1.264       .  A
O290        C297   1.265       .  A
C291        O298   1.262       .  A
C291        O292   1.269       .  A
C291       C3769   1.484       .  S
C293        O295   1.267       .  A
C293        O299   1.262       .  A
C293       C3305   1.469       .  S
C297       C3289   1.476       .  S
In300       O302   2.209   1_565  S
In300       O303   2.264   1_565  S
In300       O311   2.205   1_565  S
In300       O305   2.257   1_565  S
In300       O307   2.253       .  S
In300       O308   2.250       .  S
In300       O309   2.190       .  S
In300       O312   2.212       .  S
C301        O307   1.268       .  A
C301        O309   1.260       .  A
C301       C3297   1.463       .  S
O302        C310   1.260       .  A
O303        C310   1.268       .  A
C304        O311   1.263       .  A
C304        O305   1.267       .  A
C304       C3265   1.477       .  S
C306        O308   1.269       .  A
C306        O312   1.264       .  A
C306       C3785   1.475       .  S
C310       C3417   1.475       .  S
In313       O315   2.217       .  S
In313       O316   2.259       .  S
In313       O324   2.214       .  S
In313       O318   2.259       .  S
In313       O320   2.271       .  S
In313       O321   2.272       .  S
In313       O322   2.198       .  S
In313       O325   2.202       .  S
C314        O320   1.268       .  A
C314        O322   1.261       .  A
C314       C3249   1.478       .  S
O315        C323   1.263       .  A
O316        C323   1.267       .  A
C317        O324   1.263       .  A
C317        O318   1.267       .  A
C317       C3473   1.479       .  S
C319        O321   1.268       .  A
C319        O325   1.261       .  A
C319       C3233   1.480       .  S
C323       C3273   1.478       .  S
In326       O328   2.215       .  S
In326       O329   2.277       .  S
In326       O337   2.237       .  S
In326       O331   2.266       .  S
In326       O333   2.275       .  S
In326       O334   2.271       .  S
In326       O335   2.211       .  S
In326       O338   2.222       .  S
C327        O333   1.268       .  A
C327        O335   1.261       .  A
C327       C3241   1.478       .  S
O328        C336   1.261       .  A
O329        C336   1.267       .  A
C330        O337   1.263       .  A
C330        O331   1.267       .  A
C330       C3209   1.487       .  S
C332        O334   1.268       .  A
C332        O338   1.263       .  A
C332       C3513   1.483       .  S
C336       C3217   1.483       .  S
In339       O341   2.214       .  S
In339       O342   2.259       .  S
In339       O350   2.211       .  S
In339       O344   2.249       .  S
In339       O346   2.289       .  S
In339       O347   2.255       .  S
In339       O348   2.188       .  S
In339       O351   2.210       .  S
C340        O346   1.270       .  A
C340        O348   1.260       .  A
C340       C3225   1.483       .  S
O341        C349   1.263       .  A
O342        C349   1.267       .  A
C343        O350   1.265       .  A
C343        O344   1.270       .  A
C343       C3161   1.477       .  S
C345        O347   1.268       .  A
C345        O351   1.263       .  A
C345       C3185   1.477       .  S
C349       C3169   1.474       .  S
In352       O354   2.198       .  S
In352       O355   2.268       .  S
In352       O363   2.235       .  S
In352       O357   2.242       .  S
In352       O359   2.267       .  S
In352       O360   2.247       .  S
In352       O361   2.199       .  S
In352       O364   2.225       .  S
C353        O359   1.269       .  A
C353        O361   1.261       .  A
C353       C3193   1.468       .  S
O354        C362   1.261       .  A
O355        C362   1.268       .  A
C356        O363   1.263       .  A
C356        O357   1.267       .  A
C356       C3385   1.479       .  S
C358        O360   1.269       .  A
C358        O364   1.264       .  A
C358       C3145   1.480       .  S
C362       C3257   1.473       .  S
In365       O367   2.193       .  S
In365       O368   2.280       .  S
In365       O376   2.228       .  S
In365       O370   2.246       .  S
In365       O372   2.252       .  S
In365       O373   2.255       .  S
In365       O374   2.216       .  S
In365       O377   2.228       .  S
C366        O372   1.267       .  A
C366        O374   1.262       .  A
C366       C3121   1.472       .  S
O367        C375   1.260       .  A
O368        C375   1.270       .  A
C369        O376   1.265       .  A
C369        O370   1.266       .  A
C369       C3089   1.480       .  S
C371        O373   1.268       .  A
C371        O377   1.263       .  A
C371       C3593   1.482       .  S
C375       C3105   1.480       .  S
In378       O380   2.213       .  S
In378       O381   2.263       .  S
In378       O389   2.211   1_556  S
In378       O383   2.267   1_556  S
In378       O385   2.276       .  S
In378       O386   2.261   1_556  S
In378       O387   2.203       .  S
In378       O390   2.209   1_556  S
C379        O385   1.270       .  A
C379        O387   1.262       .  A
C379       C3073   1.483       .  S
O380        C388   1.263       .  A
O381        C388   1.269       .  A
C382        O389   1.264       .  A
C382        O383   1.271       .  A
C382       C3649   1.483       .  S
C384        O386   1.270       .  A
C384        O390   1.263       .  A
C384       C3129   1.480       .  S
C388       C3057   1.480       .  S
In391       O393   2.207       .  S
In391       O394   2.280       .  S
In391       O402   2.207       .  S
In391       O396   2.265       .  S
In391       O398   2.268       .  S
In391       O399   2.267       .  S
In391       O400   2.205       .  S
In391       O403   2.217       .  S
C392        O398   1.269       .  A
C392        O400   1.261       .  A
C392       C3041   1.472       .  S
O393        C401   1.261       .  A
O394        C401   1.269       .  A
C395        O402   1.264       .  A
C395        O396   1.269       .  A
C395       C3009   1.480       .  S
C397        O399   1.269       .  A
C397        O403   1.264       .  A
C397       C3025   1.479       .  S
C401       C3081   1.483       .  S
In404       O406   2.225       .  S
In404       O407   2.260       .  S
In404       O415   2.219   1_554  S
In404       O409   2.254       .  S
In404       O411   2.273       .  S
In404       O412   2.270   1_554  S
In404       O413   2.208       .  S
In404       O416   2.215   1_554  S
C405        O411   1.266       .  A
C405        O413   1.260       .  A
C405       C3113   1.478       .  S
O406        C414   1.262       .  A
O407        C414   1.267       .  A
C408        O415   1.264       .  A
C408        O409   1.268   1_556  A
C408       C2985   1.479       .  S
C410        O412   1.267       .  A
C410        O416   1.261       .  A
C410       C3049   1.480       .  S
C414       C2993   1.479       .  S
In417       O419   2.217       .  S
In417       O420   2.277       .  S
In417       O428   2.219       .  S
In417       O422   2.250       .  S
In417       O424   2.269       .  S
In417       O425   2.273       .  S
In417       O426   2.204       .  S
In417       O429   2.222       .  S
C418        O424   1.268       .  A
C418        O426   1.261       .  A
C418       C2961   1.475       .  S
O419        C427   1.263       .  A
O420        C427   1.270       .  A
C421        O428   1.265       .  A
C421        O422   1.269       .  A
C421       C2929   1.481       .  S
C423        O425   1.270       .  A
C423        O429   1.262       .  A
C423       C2953   1.486       .  S
C427       C3201   1.484       .  S
In430       O432   2.221       .  S
In430       O433   2.271       .  S
In430       O441   2.216       .  S
In430       O435   2.255       .  S
In430       O437   2.268   1_545  S
In430       O438   2.257   1_545  S
In430       O439   2.204   1_545  S
In430       O442   2.220   1_545  S
C431        O437   1.266       .  A
C431        O439   1.259       .  A
C431       C2913   1.474       .  S
O432        C440   1.261       .  A
O433        C440   1.265       .  A
C434        O441   1.263       .  A
C434        O435   1.266       .  A
C434       C3177   1.478       .  S
C436        O438   1.266       .  A
C436        O442   1.262       .  A
C436       C2905   1.475       .  S
C440       C2969   1.481       .  S
In443       O445   2.222       .  S
In443       O446   2.269       .  S
In443       O454   2.232       .  S
In443       O448   2.255       .  S
In443       O450   2.258       .  S
In443       O451   2.275       .  S
In443       O452   2.221       .  S
In443       O455   2.206       .  S
C444        O450   1.266       .  A
C444        O452   1.261       .  A
C444       C2881   1.478       .  S
O445        C453   1.261       .  A
O446        C453   1.266       .  A
C447        O454   1.264       .  A
C447        O448   1.264       .  A
C447       C2849   1.481       .  S
C449        O451   1.267       .  A
C449        O455   1.260       .  A
C449       C2921   1.479       .  S
C453       C2865   1.481       .  S
In456       O458   2.198       .  S
In456       O459   2.262   1_545  S
In456       O467   2.216   1_545  S
In456       O461   2.259       .  S
In456       O463   2.267       .  S
In456       O464   2.261       .  S
In456       O465   2.210       .  S
In456       O468   2.197       .  S
C457        O463   1.272       .  A
C457        O465   1.264       .  A
C457       C2945   1.480       .  S
O458        C466   1.263   1_545  A
O459        C466   1.272       .  A
C460        O467   1.266       .  A
C460        O461   1.272   1_565  A
C460       C2825   1.485       .  S
C462        O464   1.272       .  A
C462        O468   1.265       .  A
C462       C2833   1.477       .  S
C466       C2889   1.476       .  S
In469       O471   2.195       .  S
In469       O472   2.265       .  S
In469       O480   2.227   1_554  S
In469       O474   2.235       .  S
In469       O476   2.270       .  S
In469       O477   2.264   1_554  S
In469       O478   2.192       .  S
In469       O481   2.177   1_554  S
C470        O476   1.269       .  A
C470        O478   1.263       .  A
C470       C2801   1.479       .  S
O471        C479   1.263       .  A
O472        C479   1.269       .  A
C473        O480   1.265       .  A
C473        O474   1.268   1_556  A
C473       C2769   1.479       .  S
C475        O477   1.272       .  A
C475        O481   1.262       .  A
C475       C2785   1.474       .  S
C479       C3313   1.475       .  S
In482       O484   2.181       .  S
In482       O485   2.277       .  S
In482       O493   2.192       .  S
In482       O487   2.263       .  S
In482       O489   2.270       .  S
In482       O490   2.257       .  S
In482       O491   2.206       .  S
In482       O494   2.202       .  S
C483        O489   1.270       .  A
C483        O491   1.264       .  A
C483       C2761   1.481       .  S
O484        C492   1.263       .  A
O485        C492   1.271       .  A
C486        O493   1.264       .  A
C486        O487   1.270       .  A
C486       C3281   1.474       .  S
C488        O490   1.271       .  A
C488        O494   1.264       .  A
C488       C3689   1.478       .  S
C492       C2809   1.477       .  S
In495       O497   2.202       .  S
In495       O498   2.254       .  S
In495       O506   2.204       .  S
In495       O500   2.257       .  S
In495       O502   2.261       .  S
In495       O503   2.248       .  S
In495       O504   2.191       .  S
In495       O507   2.206       .  S
C496        O502   1.270       .  A
C496        O504   1.263       .  A
C496       C2793   1.472       .  S
O497        C505   1.262       .  A
O498        C505   1.269       .  A
C499        O506   1.263       .  A
C499        O500   1.270       .  A
C499       C2873   1.479       .  S
C501        O503   1.269       .  A
C501        O507   1.265       .  A
C501       C2721   1.477       .  S
C505       C2745   1.473       .  S
In508       O510   2.229       .  S
In508       O511   2.265       .  S
In508       O519   2.225   1_556  S
In508       O513   2.251       .  S
In508       O515   2.267       .  S
In508       O516   2.287   1_556  S
In508       O517   2.207       .  S
In508       O520   2.226   1_556  S
C509        O515   1.265       .  A
C509        O517   1.260       .  A
C509       C2737   1.475       .  S
O510        C518   1.262       .  A
O511        C518   1.268       .  A
C512        O519   1.264       .  A
C512        O513   1.265   1_554  A
C512       C3569   1.478       .  S
C514        O516   1.267       .  A
C514        O520   1.260       .  A
C514       C2753   1.488       .  S
C518       C2817   1.483       .  S
In521       O523   2.209       .  S
In521       O524   2.253       .  S
In521       O532   2.198       .  S
In521       O526   2.251       .  S
In521       O528   2.275       .  S
In521       O529   2.246       .  S
In521       O530   2.184       .  S
In521       O533   2.210       .  S
C522        O528   1.271       .  A
C522        O530   1.262       .  A
C522       C2705   1.478       .  S
O523        C531   1.265       .  A
O524        C531   1.269       .  A
C525        O532   1.264       .  A
C525        O526   1.271       .  A
C525       C2729   1.476       .  S
C527        O529   1.269       .  A
C527        O533   1.264       .  A
C527       C2689   1.475       .  S
C531       C3945   1.477       .  S
In534       O536   2.190       .  S
In534       O537   2.269       .  S
In534       O545   2.206       .  S
In534       O539   2.265       .  S
In534       O541   2.281       .  S
In534       O542   2.247       .  S
In534       O543   2.201       .  S
In534       O546   2.210       .  S
C535        O541   1.271       .  A
C535        O543   1.263       .  A
C535       C2673   1.481       .  S
O536        C544   1.263       .  A
O537        C544   1.270       .  A
C538        O545   1.265       .  A
C538        O539   1.272       .  A
C538       C4041   1.484       .  S
C540        O542   1.270       .  A
C540        O546   1.265       .  A
C540       C2977   1.474       .  S
C544       C2713   1.477       .  S
In547       O549   2.210       .  S
In547       O550   2.259       .  S
In547       O558   2.205       .  S
In547       O552   2.255       .  S
In547       O554   2.251       .  S
In547       O555   2.256       .  S
In547       O556   2.196       .  S
In547       O559   2.221       .  S
C548        O554   1.271       .  A
C548        O556   1.264       .  A
C548       C2697   1.473       .  S
O549        C557   1.263       .  A
O550        C557   1.270       .  A
C551        O558   1.264       .  A
C551        O552   1.269       .  A
C551       C2649   1.477       .  S
C553        O555   1.270       .  A
C553        O559   1.263       .  A
C553       C2777   1.482       .  S
C557       C2665   1.479       .  S
In560       O562   2.226       .  S
In560       O563   2.255       .  S
In560       O571   2.222       .  S
In560       O565   2.263       .  S
In560       O567   2.269       .  S
In560       O568   2.274       .  S
In560       O569   2.214       .  S
In560       O572   2.213       .  S
C561        O567   1.269       .  A
C561        O569   1.261       .  A
C561       C2657   1.482       .  S
O562        C570   1.264       .  A
O563        C570   1.268       .  A
C564        O571   1.264       .  A
C564        O565   1.269       .  A
C564       C3033   1.484       .  S
C566        O568   1.269       .  A
C566        O572   1.262       .  A
C566       C2681   1.484       .  S
C570       C2633   1.481       .  S
In573       O575   2.196       .  S
In573       O576   2.256       .  S
In573       O584   2.202       .  S
In573       O578   2.243       .  S
In573       O580   2.254       .  S
In573       O581   2.258       .  S
In573       O582   2.185       .  S
In573       O585   2.188       .  S
C574        O580   1.274       .  A
C574        O582   1.266       .  A
C574       C2609   1.474       .  S
O575        C583   1.267       .  A
O576        C583   1.274       .  A
C577        O584   1.269       .  A
C577        O578   1.273       .  A
C577       C2561   1.480       .  S
C579        O581   1.275       .  A
C579        O585   1.266       .  A
C579       C2593   1.480       .  S
C583       C2577   1.478       .  S
In586       O588   2.195   1_554  S
In586       O589   2.263   1_554  S
In586       O597   2.211   1_554  S
In586       O591   2.251   1_554  S
In586       O593   2.264       .  S
In586       O594   2.249       .  S
In586       O595   2.206       .  S
In586       O598   2.209       .  S
C587        O593   1.268       .  A
C587        O595   1.262       .  A
C587       C2601   1.478       .  S
O588        C596   1.262       .  A
O589        C596   1.269       .  A
C590        O597   1.263       .  A
C590        O591   1.268       .  A
C590       C2513   1.476       .  S
C592        O594   1.267       .  A
C592        O598   1.263       .  A
C592       C2537   1.470       .  S
C596       C2545   1.476       .  S
In599       O601   2.228       .  S
In599       O602   2.263       .  S
In599       O610   2.212       .  S
In599       O604   2.257       .  S
In599       O606   2.271       .  S
In599       O607   2.275       .  S
In599       O608   2.213       .  S
In599       O611   2.216       .  S
C600        O606   1.266       .  A
C600        O608   1.260       .  A
C600       C2553   1.477       .  S
O601        C609   1.262       .  A
O602        C609   1.267       .  A
C603        O610   1.264       .  A
C603        O604   1.267       .  A
C603       C2465   1.479       .  S
C605        O607   1.267       .  A
C605        O611   1.261       .  A
C605       C2497   1.481       .  S
C609       C2489   1.480       .  S
In612       O614   2.208   1_556  S
In612       O615   2.258   1_556  S
In612       O623   2.204   1_556  S
In612       O617   2.251       .  S
In612       O619   2.279       .  S
In612       O620   2.249       .  S
In612       O621   2.209       .  S
In612       O624   2.208       .  S
C613        O619   1.268       .  A
C613        O621   1.261       .  A
C613       C2505   1.478       .  S
O614        C622   1.263       .  A
O615        C622   1.267       .  A
C616        O623   1.263       .  A
C616        O617   1.270   1_554  A
C616       C2433   1.476       .  S
C618        O620   1.268       .  A
C618        O624   1.263       .  A
C618       C2449   1.471       .  S
C622       C2617   1.477       .  S
In625       O627   2.218       .  S
In625       O628   2.253       .  S
In625       O636   2.215       .  S
In625       O630   2.255       .  S
In625       O632   2.273       .  S
In625       O633   2.257       .  S
In625       O634   2.196       .  S
In625       O637   2.221       .  S
C626        O632   1.268       .  A
C626        O634   1.261       .  A
C626       C2417   1.477       .  S
O627        C635   1.263       .  A
O628        C635   1.267       .  A
C629        O636   1.263       .  A
C629        O630   1.267       .  A
C629       C3337   1.479       .  S
C631        O633   1.266       .  A
C631        O637   1.262       .  A
C631       C2401   1.479       .  S
C635       C2441   1.477       .  S
In638       O640   2.210       .  S
In638       O641   2.261       .  S
In638       O649   2.212       .  S
In638       O643   2.247       .  S
In638       O645   2.265       .  S
In638       O646   2.249       .  S
In638       O647   2.202       .  S
In638       O650   2.208       .  S
C639        O645   1.269       .  A
C639        O647   1.260       .  A
C639       C2409   1.474       .  S
O640        C648   1.262       .  A
O641        C648   1.268       .  A
C642        O649   1.264       .  A
C642        O643   1.269       .  A
C642       C2369   1.478       .  S
C644        O646   1.269       .  A
C644        O650   1.263       .  A
C644       C3369   1.472       .  S
C648       C2385   1.478       .  S
In651       O653   2.187       .  S
In651       O654   2.277       .  S
In651       O662   2.216       .  S
In651       O656   2.255       .  S
In651       O658   2.259       .  S
In651       O659   2.262       .  S
In651       O660   2.206       .  S
In651       O663   2.201       .  S
C652        O658   1.267       .  A
C652        O660   1.262       .  A
C652       C2361   1.471       .  S
O653        C661   1.260       .  A
O654        C661   1.269       .  A
C655        O662   1.264       .  A
C655        O656   1.267       .  A
C655       C2585   1.480       .  S
C657        O659   1.269       .  A
C657        O663   1.263       .  A
C657       C2345   1.475       .  S
C661       C2425   1.478       .  S
In664       O666   2.196       .  S
In664       O667   2.249       .  S
In664       O675   2.223       .  S
In664       O669   2.244       .  S
In664       O671   2.260       .  S
In664       O672   2.261       .  S
In664       O673   2.210       .  S
In664       O676   2.194       .  S
C665        O671   1.270       .  A
C665        O673   1.263       .  A
C665       C2393   1.477       .  S
O666        C674   1.264       .  A
O667        C674   1.271       .  A
C668        O675   1.266       .  A
C668        O669   1.270       .  A
C668       C2313   1.481       .  S
C670        O672   1.270       .  A
C670        O676   1.263       .  A
C670       C2353   1.478       .  S
C674       C2329   1.473       .  S
In677       O679   2.210       .  S
In677       O680   2.258       .  S
In677       O688   2.201       .  S
In677       O682   2.247       .  S
In677       O684   2.257       .  S
In677       O685   2.259       .  S
In677       O686   2.195       .  S
In677       O689   2.196       .  S
C678        O684   1.270       .  A
C678        O686   1.263       .  A
C678       C2289   1.477       .  S
O679        C687   1.264       .  A
O680        C687   1.269       .  A
C681        O688   1.265       .  A
C681        O682   1.269       .  A
C681       C2337   1.476       .  S
C683        O685   1.271       .  A
C683        O689   1.263       .  A
C683       C2281   1.475       .  S
C687       C4265   1.478       .  S
In690       O692   2.201       .  S
In690       O693   2.263       .  S
In690       O701   2.195       .  S
In690       O695   2.266       .  S
In690       O697   2.267       .  S
In690       O698   2.238       .  S
In690       O699   2.188       .  S
In690       O702   2.209       .  S
C691        O697   1.273       .  A
C691        O699   1.263       .  A
C691       C2257   1.479       .  S
O692        C700   1.264       .  A
O693        C700   1.270       .  A
C694        O701   1.264       .  A
C694        O695   1.272       .  A
C694       C4233   1.481       .  S
C696        O698   1.271       .  A
C696        O702   1.266       .  A
C696       C3881   1.474       .  S
C700       C2297   1.475       .  S
In703       O705   2.206       .  S
In703       O706   2.283       .  S
In703       O714   2.236       .  S
In703       O708   2.251       .  S
In703       O710   2.255       .  S
In703       O711   2.265       .  S
In703       O712   2.211       .  S
In703       O715   2.218       .  S
C704        O710   1.269       .  A
C704        O712   1.263       .  A
C704       C2273   1.477       .  S
O705        C713   1.261       .  A
O706        C713   1.271       .  A
C707        O714   1.265       .  A
C707        O708   1.268       .  A
C707       C3001   1.484       .  S
C709        O711   1.270       .  A
C709        O715   1.263       .  A
C709       C2305   1.479       .  S
C713       C2241   1.485       .  S
In716       O718   2.201       .  S
In716       O719   2.273       .  S
In716       O727   2.236       .  S
In716       O721   2.260       .  S
In716       O723   2.259       .  S
In716       O724   2.274       .  S
In716       O725   2.238       .  S
In716       O728   2.189       .  S
C717        O723   1.268       .  A
C717        O725   1.264       .  A
C717       C2249   1.486       .  S
O718        C726   1.262       .  A
O719        C726   1.270       .  A
C720        O727   1.265       .  A
C720        O721   1.269       .  A
C720       C3849   1.487       .  S
C722        O724   1.271       .  A
C722        O728   1.261       .  A
C722       C2265   1.479       .  S
C726       C3097   1.480       .  S
In729       O731   2.196       .  S
In729       O732   2.262       .  S
In729       O740   2.221       .  S
In729       O734   2.263       .  S
In729       O736   2.258       .  S
In729       O737   2.265       .  S
In729       O738   2.215       .  S
In729       O741   2.194       .  S
C730        O736   1.271       .  A
C730        O738   1.265       .  A
C730       C2225   1.481       .  S
O731        C739   1.262       .  A
O732        C739   1.271       .  A
C733        O740   1.265       .  A
C733        O734   1.270       .  A
C733       C2201   1.486       .  S
C735        O737   1.271       .  A
C735        O741   1.264       .  A
C735       C2857   1.478       .  S
C739       C2209   1.472       .  S
In742       O744   2.201   1_455  S
In742       O745   2.260       .  S
In742       O753   2.203       .  S
In742       O747   2.249       .  S
In742       O749   2.260   1_455  S
In742       O750   2.258       .  S
In742       O751   2.199   1_455  S
In742       O754   2.204       .  S
C743        O749   1.272       .  A
C743        O751   1.264       .  A
C743       C2177   1.475       .  S
O744        C752   1.266       .  A
O745        C752   1.273   1_455  A
C746        O753   1.266       .  A
C746        O747   1.272       .  A
C746       C2897   1.480       .  S
C748        O750   1.272       .  A
C748        O754   1.265       .  A
C748       C2233   1.482       .  S
C752       C2161   1.482       .  S
In755       O757   2.217       .  S
In755       O758   2.257       .  S
In755       O766   2.207       .  S
In755       O760   2.247       .  S
In755       O762   2.262       .  S
In755       O763   2.259       .  S
In755       O764   2.207       .  S
In755       O767   2.215       .  S
C756        O762   1.266       .  A
C756        O764   1.260       .  A
C756       C2145   1.473       .  S
O757        C765   1.261       .  A
O758        C765   1.266       .  A
C759        O766   1.263       .  A
C759        O760   1.268       .  A
C759       C2113   1.474       .  S
C761        O763   1.267       .  A
C761        O767   1.262       .  A
C761       C2129   1.475       .  S
C765       C2185   1.478       .  S
In768       O770   2.229       .  S
In768       O771   2.253       .  S
In768       O779   2.225       .  S
In768       O773   2.260       .  S
In768       O775   2.197       .  S
In768       O776   2.206       .  S
In768       O777   2.271       .  S
In768       O780   2.256       .  S
C769        O775   1.260       .  A
C769        O777   1.270       .  A
C769       C2217   1.478       .  S
O770        C778   1.264       .  A
O771        C778   1.266       .  A
C772        O779   1.264       .  A
C772        O773   1.269       .  A
C772       C2081   1.484   1_455  S
C774        O776   1.262   1_655  A
C774        O780   1.268   1_655  A
C774       C2153   1.476       .  S
C778       C2105   1.480       .  S
In781       O783   2.213       .  S
In781       O784   2.247       .  S
In781       O792   2.200       .  S
In781       O786   2.261       .  S
In781       O788   2.273       .  S
In781       O789   2.258       .  S
In781       O790   2.193       .  S
In781       O793   2.208       .  S
C782        O788   1.270       .  A
C782        O790   1.261       .  A
C782       C2065   1.475       .  S
O783        C791   1.265       .  A
O784        C791   1.269       .  A
C785        O792   1.264       .  A
C785        O786   1.271       .  A
C785       C2033   1.479       .  S
C787        O789   1.268       .  A
C787        O793   1.263       .  A
C787       C2049   1.479       .  S
C791       C2377   1.474       .  S
In794       O796   2.181   1_554  S
In794       O797   2.271   1_554  S
In794       O805   2.197   1_554  S
In794       O799   2.246       .  S
In794       O801   2.265       .  S
In794       O802   2.252       .  S
In794       O803   2.192       .  S
In794       O806   2.216       .  S
C795        O801   1.269       .  A
C795        O803   1.262       .  A
C795       C2057   1.472       .  S
O796        C804   1.262       .  A
O797        C804   1.271       .  A
C798        O805   1.265       .  A
C798        O799   1.270   1_556  A
C798       C1993   1.474       .  S
C800        O802   1.269       .  A
C800        O806   1.264       .  A
C800       C2001   1.476       .  S
C804       C2017   1.477       .  S
In807       O809   2.217       .  S
In807       O810   2.262       .  S
In807       O818   2.226       .  S
In807       O812   2.250       .  S
In807       O814   2.274       .  S
In807       O815   2.278       .  S
In807       O816   2.201       .  S
In807       O819   2.202       .  S
C808        O814   1.265       .  A
C808        O816   1.260       .  A
C808       C2025   1.475       .  S
O809        C817   1.262       .  A
O810        C817   1.266       .  A
C811        O818   1.263       .  A
C811        O812   1.265       .  A
C811       C4089   1.479       .  S
C813        O815   1.266       .  A
C813        O819   1.260       .  A
C813       C1977   1.479       .  S
C817       C1961   1.478       .  S
In820       O822   2.212   1_556  S
In820       O823   2.268   1_556  S
In820       O831   2.219   1_556  S
In820       O825   2.244       .  S
In820       O827   2.271       .  S
In820       O828   2.261       .  S
In820       O829   2.208       .  S
In820       O832   2.216       .  S
C821        O827   1.266       .  A
C821        O829   1.261       .  A
C821       C1969   1.477       .  S
O822        C830   1.261       .  A
O823        C830   1.267       .  A
C824        O831   1.264       .  A
C824        O825   1.267   1_554  A
C824       C2321   1.476       .  S
C826        O828   1.267       .  A
C826        O832   1.262       .  A
C826       C4017   1.477       .  S
C830       C2073   1.479       .  S
In833       O835   2.186       .  S
In833       O836   2.237       .  S
In833       O844   2.212   1_455  S
In833       O838   2.242       .  S
In833       O840   2.248       .  S
In833       O841   2.247   1_455  S
In833       O842   2.207       .  S
In833       O845   2.189   1_455  S
C834        O840   1.274       .  A
C834        O842   1.266       .  A
C834       C1937   1.480       .  S
O835        C843   1.266       .  A
O836        C843   1.273       .  A
C837        O844   1.268       .  A
C837        O838   1.272   1_655  A
C837       C1905   1.480       .  S
C839        O841   1.273       .  A
C839        O845   1.266       .  A
C839       C1921   1.476       .  S
C843       C1985   1.470       .  S
In846       O848   2.213       .  S
In846       O849   2.262       .  S
In846       O857   2.192       .  S
In846       O851   2.242       .  S
In846       O853   2.248       .  S
In846       O854   2.268       .  S
In846       O855   2.198       .  S
In846       O858   2.198       .  S
C847        O853   1.270       .  A
C847        O855   1.264       .  A
C847       C1897   1.467       .  S
O848        C856   1.263       .  A
O849        C856   1.272       .  A
C850        O857   1.265       .  A
C850        O851   1.271       .  A
C850       C1953   1.474       .  S
C852        O854   1.273       .  A
C852        O858   1.264       .  A
C852       C2937   1.480       .  S
C856       C1945   1.482       .  S
In859       O861   2.208       .  S
In859       O862   2.271       .  S
In859       O870   2.218       .  S
In859       O864   2.262       .  S
In859       O866   2.261       .  S
In859       O867   2.262       .  S
In859       O868   2.211       .  S
In859       O871   2.229       .  S
C860        O866   1.269       .  A
C860        O868   1.262       .  A
C860       C1929   1.477       .  S
O861        C869   1.262       .  A
O862        C869   1.270       .  A
C863        O870   1.264       .  A
C863        O864   1.269       .  A
C863       C2481   1.483       .  S
C865        O867   1.269       .  A
C865        O871   1.263       .  A
C865       C1857   1.482       .  S
C869       C1873   1.481       .  S
In872       O874   2.215   1_455  S
In872       O875   2.258   1_455  S
In872       O883   2.231       .  S
In872       O877   2.252       .  S
In872       O879   2.275   1_455  S
In872       O880   2.267       .  S
In872       O881   2.211   1_455  S
In872       O884   2.205       .  S
C873        O879   1.266       .  A
C873        O881   1.260       .  A
C873       C1881   1.479       .  S
O874        C882   1.262       .  A
O875        C882   1.266       .  A
C876        O883   1.264       .  A
C876        O877   1.266       .  A
C876       C2841   1.481       .  S
C878        O880   1.266       .  A
C878        O884   1.260       .  A
C878       C1889   1.475       .  S
C882       C2521   1.476       .  S
In885       O887   2.216       .  S
In885       O888   2.259       .  S
In885       O896   2.220       .  S
In885       O890   2.261       .  S
In885       O892   2.276       .  S
In885       O893   2.261       .  S
In885       O894   2.203       .  S
In885       O897   2.212       .  S
C886        O892   1.271       .  A
C886        O894   1.261       .  A
C886       C1841   1.482       .  S
O887        C895   1.264       .  A
O888        C895   1.269       .  A
C889        O896   1.265       .  A
C889        O890   1.270       .  A
C889       C1865   1.485       .  S
C891        O893   1.269       .  A
C891        O897   1.263       .  A
C891       C1825   1.481       .  S
C895       C4169   1.479       .  S
In898       O900   2.220       .  S
In898       O901   2.271       .  S
In898       O909   2.227       .  S
In898       O903   2.254       .  S
In898       O905   2.265       .  S
In898       O906   2.265       .  S
In898       O907   2.213       .  S
In898       O910   2.217       .  S
C899        O905   1.269       .  A
C899        O907   1.262       .  A
C899       C1809   1.481       .  S
O900        C908   1.262       .  A
O901        C908   1.269       .  A
C902        O909   1.264       .  A
C902        O903   1.268       .  A
C902       C4153   1.482       .  S
C904        O906   1.269       .  A
C904        O910   1.263       .  A
C904       C2089   1.480       .  S
C908       C1849   1.484       .  S
In911       O913   2.212       .  S
In911       O914   2.260       .  S
In911       O922   2.221       .  S
In911       O916   2.261       .  S
In911       O918   2.279       .  S
In911       O919   2.258       .  S
In911       O920   2.214       .  S
In911       O923   2.215       .  S
C912        O918   1.267       .  A
C912        O920   1.259       .  A
C912       C1833   1.477       .  S
O913        C921   1.260       .  A
O914        C921   1.266       .  A
C915        O922   1.263       .  A
C915        O916   1.268       .  A
C915       C3065   1.482       .  S
C917        O919   1.267       .  A
C917        O923   1.264       .  A
C917       C1913   1.478       .  S
C921       C1793   1.476       .  S
In924       O926   2.216       .  S
In924       O927   2.257       .  S
In924       O935   2.220       .  S
In924       O929   2.257       .  S
In924       O931   2.258       .  S
In924       O932   2.276       .  S
In924       O933   2.209       .  S
In924       O936   2.204       .  S
C925        O931   1.268       .  A
C925        O933   1.261       .  A
C925       C1801   1.473       .  S
O926        C934   1.264       .  A
O927        C934   1.268       .  A
C928        O935   1.263       .  A
C928        O929   1.267       .  A
C928       C2137   1.480       .  S
C930        O932   1.268       .  A
C930        O936   1.259       .  A
C930       C1817   1.478       .  S
C934       C3017   1.476       .  S
In937       O939   2.224       .  S
In937       O940   2.263       .  S
In937       O948   2.205       .  S
In937       O942   2.253       .  S
In937       O944   2.264       .  S
In937       O945   2.272       .  S
In937       O946   2.202       .  S
In937       O949   2.203       .  S
C938        O944   1.273       .  A
C938        O946   1.265       .  A
C938       C1777   1.478       .  S
O939        C947   1.267       .  A
O940        C947   1.273       .  A
C941        O948   1.267       .  A
C941        O942   1.273       .  A
C941       C3137   1.482       .  S
C943        O945   1.274       .  A
C943        O949   1.265       .  A
C943       C1769   1.486       .  S
C947       C1753   1.486       .  S
In950       O952   2.199   1_455  S
In950       O953   2.272   1_455  S
In950       O961   2.218   1_455  S
In950       O955   2.255       .  S
In950       O957   2.262       .  S
In950       O958   2.253       .  S
In950       O959   2.230       .  S
In950       O962   2.207       .  S
C951        O957   1.267       .  A
C951        O959   1.262       .  A
C951       C1761   1.483       .  S
O952        C960   1.260       .  A
O953        C960   1.268       .  A
C954        O961   1.263       .  A
C954        O955   1.268   1_655  A
C954       C1713   1.479       .  S
C956        O958   1.269       .  A
C956        O962   1.263       .  A
C956       C3153   1.476       .  S
C960       C1737   1.479       .  S
In963       O965   2.206       .  S
In963       O966   2.255       .  S
In963       O974   2.199       .  S
In963       O968   2.256       .  S
In963       O970   2.262       .  S
In963       O971   2.272       .  S
In963       O972   2.198       .  S
In963       O975   2.200       .  S
C964        O970   1.269       .  A
C964        O972   1.262       .  A
C964       C1729   1.473       .  S
O965        C973   1.263       .  A
O966        C973   1.270       .  A
C967        O974   1.264       .  A
C967        O968   1.269       .  A
C967       C4281   1.477       .  S
C969        O971   1.269       .  A
C969        O975   1.262       .  A
C969       C1697   1.480       .  S
C973       C1689   1.475       .  S
In976       O978   2.216       .  S
In976       O979   2.269       .  S
In976       O987   2.204       .  S
In976       O981   2.245       .  S
In976       O983   2.271   1_455  S
In976       O984   2.267   1_455  S
In976       O985   2.185   1_455  S
In976       O988   2.222   1_455  S
C977        O983   1.270       .  A
C977        O985   1.261       .  A
C977       C1705   1.476       .  S
O978        C986   1.263       .  A
O979        C986   1.270       .  A
C980        O987   1.266       .  A
C980        O981   1.270       .  A
C980       C1665   1.475       .  S
C982        O984   1.268       .  A
C982        O988   1.263       .  A
C982       C4129   1.479       .  S
C986       C1785   1.485       .  S
In989       O991   2.197       .  S
In989       O992   2.263       .  S
In989      O1000   2.229       .  S
In989       O994   2.254       .  S
In989       O996   2.267       .  S
In989       O997   2.270       .  S
In989       O998   2.218       .  S
In989      O1001   2.212       .  S
C990        O996   1.267       .  A
C990        O998   1.261       .  A
C990       C1657   1.479       .  S
O991        C999   1.262       .  A
O992        C999   1.269       .  A
C993       O1000   1.263       .  A
C993        O994   1.266       .  A
C993       C1617   1.480       .  S
C995        O997   1.267       .  A
C995       O1001   1.260       .  A
C995       C1633   1.480       .  S
C999       C1673   1.476       .  S
In1002     O1004   2.206       .  S
In1002     O1005   2.265       .  S
In1002     O1013   2.222       .  S
In1002     O1007   2.261       .  S
In1002     O1009   2.271       .  S
In1002     O1010   2.248       .  S
In1002     O1011   2.212       .  S
In1002     O1014   2.210       .  S
C1003      O1009   1.272       .  A
C1003      O1011   1.263       .  A
C1003      C1601   1.482       .  S
O1004      C1012   1.264       .  A
O1005      C1012   1.271       .  A
C1006      O1013   1.266       .  A
C1006      O1007   1.272       .  A
C1006      C1745   1.487       .  S
C1008      O1010   1.271       .  A
C1008      O1014   1.266       .  A
C1008      C2041   1.477       .  S
C1012      C1649   1.482       .  S
In1015     O1017   2.203       .  S
In1015     O1018   2.266       .  S
In1015     O1026   2.207       .  S
In1015     O1020   2.253       .  S
In1015     O1022   2.264       .  S
In1015     O1023   2.250       .  S
In1015     O1024   2.209       .  S
In1015     O1027   2.218       .  S
C1016      O1022   1.270       .  A
C1016      O1024   1.263       .  A
C1016      C1641   1.478       .  S
O1017      C1025   1.262       .  A
O1018      C1025   1.270       .  A
C1019      O1026   1.265       .  A
C1019      O1020   1.270       .  A
C1019      C3705   1.478       .  S
C1021      O1023   1.270       .  A
C1021      O1027   1.265       .  A
C1021      C1569   1.480       .  S
C1025      C1593   1.481       .  S
In1028     O1030   2.230       .  S
In1028     O1031   2.264       .  S
In1028     O1039   2.231       .  S
In1028     O1033   2.259       .  S
In1028     O1035   2.271       .  S
In1028     O1036   2.271       .  S
In1028     O1037   2.220       .  S
In1028     O1040   2.225       .  S
C1029      O1035   1.266       .  A
C1029      O1037   1.260       .  A
C1029      C1585   1.478       .  S
O1030      C1038   1.263       .  A
O1031      C1038   1.266       .  A
C1032      O1039   1.263       .  A
C1032      O1033   1.266       .  A
C1032      C2009   1.482       .  S
C1034      O1036   1.266       .  A
C1034      O1040   1.260       .  A
C1034      C1609   1.483       .  S
C1038      C3641   1.480       .  S
In1041     O1043   2.220       .  S
In1041     O1044   2.239       .  S
In1041     O1052   2.195       .  S
In1041     O1046   2.262       .  S
In1041     O1048   2.273       .  S
In1041     O1049   2.246       .  S
In1041     O1050   2.200       .  S
In1041     O1053   2.218       .  S
C1042      O1048   1.272       .  A
C1042      O1050   1.263       .  A
C1042      C1553   1.479       .  S
O1043      C1051   1.266       .  A
O1044      C1051   1.270       .  A
C1045      O1052   1.264       .  A
C1045      O1046   1.273       .  A
C1045      C1577   1.479       .  S
C1047      O1049   1.269       .  A
C1047      O1053   1.265       .  A
C1047      C1537   1.480       .  S
C1051      C3753   1.479       .  S
In1054     O1056   2.208       .  S
In1054     O1057   2.250       .  S
In1054     O1065   2.212       .  S
In1054     O1059   2.259       .  S
In1054     O1061   2.265       .  S
In1054     O1062   2.237       .  S
In1054     O1063   2.197       .  S
In1054     O1066   2.212       .  S
C1055      O1061   1.272       .  A
C1055      O1063   1.262       .  A
C1055      C1545   1.475       .  S
O1056      C1064   1.264       .  A
O1057      C1064   1.270       .  A
C1058      O1065   1.265       .  A
C1058      O1059   1.271       .  A
C1058      C2097   1.483       .  S
C1060      O1062   1.270       .  A
C1060      O1066   1.266       .  A
C1060      C1625   1.474       .  S
C1064      C1529   1.477       .  S
In1067     O1069   2.212       .  S
In1067     O1070   2.255       .  S
In1067     O1078   2.213       .  S
In1067     O1072   2.243       .  S
In1067     O1074   2.251       .  S
In1067     O1075   2.265       .  S
In1067     O1076   2.208       .  S
In1067     O1079   2.212       .  S
C1068      O1074   1.269       .  A
C1068      O1076   1.262       .  A
C1068      C1521   1.470       .  S
O1069      C1077   1.265       .  A
O1070      C1077   1.272       .  A
C1071      O1078   1.266       .  A
C1071      O1072   1.269       .  A
C1071      C3961   1.478       .  S
C1073      O1075   1.270       .  A
C1073      O1079   1.262       .  A
C1073      C1505   1.482       .  S
C1077      C2193   1.480       .  S
In1080     O1082   2.221       .  S
In1080     O1083   2.275       .  S
In1080     O1091   2.225       .  S
In1080     O1085   2.256       .  S
In1080     O1087   2.261       .  S
In1080     O1088   2.273       .  S
In1080     O1089   2.213       .  S
In1080     O1092   2.219       .  S
C1081      O1087   1.268       .  A
C1081      O1089   1.261       .  A
C1081      C1513   1.475       .  S
O1082      C1090   1.261       .  A
O1083      C1090   1.269       .  A
C1084      O1091   1.264       .  A
C1084      O1085   1.267       .  A
C1084      C3897   1.481       .  S
C1086      O1088   1.269       .  A
C1086      O1092   1.263       .  A
C1086      C3977   1.486       .  S
C1090      C1561   1.485       .  S
In1093     O1095   2.196       .  S
In1093     O1096   2.262       .  S
In1093     O1104   2.215       .  S
In1093     O1098   2.249       .  S
In1093     O1100   2.268       .  S
In1093     O1101   2.261       .  S
In1093     O1102   2.198       .  S
In1093     O1105   2.195       .  S
C1094      O1100   1.269       .  A
C1094      O1102   1.261       .  A
C1094      C1489   1.476       .  S
O1095      C1103   1.262       .  A
O1096      C1103   1.269       .  A
C1097      O1104   1.265       .  A
C1097      O1098   1.269       .  A
C1097      C3425   1.478       .  S
C1099      O1101   1.269       .  A
C1099      O1105   1.263       .  A
C1099      C2473   1.472       .  S
C1103      C1473   1.476       .  S
In1106     O1108   2.200   1_545  S
In1106     O1109   2.264       .  S
In1106     O1117   2.224       .  S
In1106     O1111   2.242       .  S
In1106     O1113   2.271   1_545  S
In1106     O1114   2.274       .  S
In1106     O1115   2.211   1_545  S
In1106     O1118   2.210       .  S
C1107      O1113   1.265       .  A
C1107      O1115   1.260       .  A
C1107      C1457   1.478       .  S
O1108      C1116   1.262       .  A
O1109      C1116   1.268   1_545  A
C1110      O1117   1.264       .  A
C1110      O1111   1.265       .  A
C1110      C2457   1.475       .  S
C1112      O1114   1.266       .  A
C1112      O1118   1.260       .  A
C1112      C1497   1.480       .  S
C1116      C2641   1.475       .  S
In1119     O1121   2.209       .  S
In1119     O1122   2.273       .  S
In1119     O1130   2.205       .  S
In1119     O1124   2.264       .  S
In1119     O1126   2.274       .  S
In1119     O1127   2.247       .  S
In1119     O1128   2.206       .  S
In1119     O1131   2.232       .  S
C1120      O1126   1.269       .  A
C1120      O1128   1.260       .  A
C1120      C1441   1.476       .  S
O1121      C1129   1.262       .  A
O1122      C1129   1.269       .  A
C1123      O1130   1.263       .  A
C1123      O1124   1.270       .  A
C1123      C2625   1.481       .  S
C1125      O1127   1.269       .  A
C1125      O1131   1.265       .  A
C1125      C1425   1.480       .  S
C1129      C1465   1.482       .  S
In1132     O1134   2.213       .  S
In1132     O1135   2.256       .  S
In1132     O1143   2.219   1_545  S
In1132     O1137   2.254       .  S
In1132     O1139   2.265       .  S
In1132     O1140   2.264   1_545  S
In1132     O1141   2.204       .  S
In1132     O1144   2.209   1_545  S
C1133      O1139   1.266       .  A
C1133      O1141   1.259       .  A
C1133      C1481   1.472       .  S
O1134      C1142   1.262       .  A
O1135      C1142   1.266       .  A
C1136      O1143   1.264   1_545  A
C1136      O1137   1.267       .  A
C1136      C1417   1.479   1_545  S
C1138      O1140   1.266       .  A
C1138      O1144   1.261       .  A
C1138      C1449   1.477       .  S
C1142      C3465   1.473       .  S
In1145     O1147   2.225       .  S
In1145     O1148   2.253       .  S
In1145     O1156   2.220       .  S
In1145     O1150   2.243       .  S
In1145     O1152   2.268       .  S
In1145     O1153   2.259   1_545  S
In1145     O1154   2.201       .  S
In1145     O1157   2.209       .  S
C1146      O1152   1.267       .  A
C1146      O1154   1.259       .  A
C1146      C1393   1.477       .  S
O1147      C1155   1.262       .  A
O1148      C1155   1.266       .  A
C1149      O1156   1.265       .  A
C1149      O1150   1.267       .  A
C1149      C1361   1.478   1_545  S
C1151      O1153   1.267       .  A
C1151      O1157   1.262   1_565  A
C1151      C1377   1.475       .  S
C1155      C1721   1.474       .  S
In1158     O1160   2.213       .  S
In1158     O1161   2.271       .  S
In1158     O1169   2.225       .  S
In1158     O1163   2.248       .  S
In1158     O1165   2.263       .  S
In1158     O1166   2.258       .  S
In1158     O1167   2.205       .  S
In1158     O1170   2.217       .  S
C1159      O1165   1.266       .  A
C1159      O1167   1.260       .  A
C1159      C1345   1.466       .  S
O1160      C1168   1.259       .  A
O1161      C1168   1.266       .  A
C1162      O1169   1.263       .  A
C1162      O1163   1.265       .  A
C1162      C1681   1.477       .  S
C1164      O1166   1.268       .  A
C1164      O1170   1.263       .  A
C1164      C2569   1.479       .  S
C1168      C1401   1.475       .  S
In1171     O1173   2.215       .  S
In1171     O1174   2.277       .  S
In1171     O1182   2.223       .  S
In1171     O1176   2.268       .  S
In1171     O1178   2.258       .  S
In1171     O1179   2.262       .  S
In1171     O1180   2.216       .  S
In1171     O1183   2.207       .  S
C1172      O1178   1.267       .  A
C1172      O1180   1.260       .  A
C1172      C1385   1.470       .  S
O1173      C1181   1.260       .  A
O1174      C1181   1.267       .  A
C1175      O1182   1.263       .  A
C1175      O1176   1.267       .  A
C1175      C3609   1.483       .  S
C1177      O1179   1.269       .  A
C1177      O1183   1.263       .  A
C1177      C1313   1.478       .  S
C1181      C1337   1.483       .  S
In1184     O1186   2.222   1_545  S
In1184     O1187   2.252   1_545  S
In1184     O1195   2.206       .  S
In1184     O1189   2.250       .  S
In1184     O1191   2.278   1_545  S
In1184     O1192   2.266       .  S
In1184     O1193   2.200   1_545  S
In1184     O1196   2.208       .  S
C1185      O1191   1.267       .  A
C1185      O1193   1.259       .  A
C1185      C1329   1.480       .  S
O1186      C1194   1.262       .  A
O1187      C1194   1.266       .  A
C1188      O1195   1.264       .  A
C1188      O1189   1.268       .  A
C1188      C2529   1.475       .  S
C1190      O1192   1.266       .  A
C1190      O1196   1.261       .  A
C1190      C1353   1.474       .  S
C1194      C3561   1.476       .  S
In1197     O1199   2.214       .  S
In1197     O1200   2.276       .  S
In1197     O1208   2.218       .  S
In1197     O1202   2.252       .  S
In1197     O1204   2.265       .  S
In1197     O1205   2.263       .  S
In1197     O1206   2.218       .  S
In1197     O1209   2.213       .  S
C1198      O1204   1.267       .  A
C1198      O1206   1.262       .  A
C1198      C1297   1.481       .  S
O1199      C1207   1.261       .  A
O1200      C1207   1.267       .  A
C1201      O1208   1.264       .  A
C1201      O1202   1.267       .  A
C1201      C1321   1.478       .  S
C1203      O1205   1.269       .  A
C1203      O1209   1.262       .  A
C1203      C1281   1.480       .  S
C1207      C3833   1.483       .  S
In1210     O1212   2.197       .  S
In1210     O1213   2.275       .  S
In1210     O1221   2.210       .  S
In1210     O1215   2.265       .  S
In1210     O1217   2.260       .  S
In1210     O1218   2.263       .  S
In1210     O1219   2.212       .  S
In1210     O1222   2.207       .  S
C1211      O1217   1.269       .  A
C1211      O1219   1.263       .  A
C1211      C1265   1.473       .  S
O1212      C1220   1.261       .  A
O1213      C1220   1.270       .  A
C1214      O1221   1.264       .  A
C1214      O1215   1.269       .  A
C1214      C3801   1.482       .  S
C1216      O1218   1.270       .  A
C1216      O1222   1.264       .  A
C1216      C1409   1.478       .  S
C1220      C1305   1.475       .  S
In1223     O1225   2.189       .  S
In1223     O1226   2.268       .  S
In1223     O1234   2.212       .  S
In1223     O1228   2.264       .  S
In1223     O1230   2.265       .  S
In1223     O1231   2.248       .  S
In1223     O1232   2.206       .  S
In1223     O1235   2.208       .  S
C1224      O1230   1.270       .  A
C1224      O1232   1.261       .  A
C1224      C1289   1.474       .  S
O1225      C1233   1.262       .  A
O1226      C1233   1.270       .  A
C1227      O1234   1.265       .  A
C1227      O1228   1.270       .  A
C1227      C2169   1.483       .  S
C1229      O1231   1.269       .  A
C1229      O1235   1.264       .  A
C1229      C1369   1.474       .  S
C1233      C1257   1.477       .  S
In1236     O1238   2.208       .  S
In1236     O1239   2.242       .  S
In1236     O1247   2.199       .  S
In1236     O1241   2.254       .  S
In1236     O1243   2.269       .  S
In1236     O1244   2.262       .  S
In1236     O1245   2.206       .  S
In1236     O1248   2.205       .  S
C1237      O1243   1.269       .  A
C1237      O1245   1.262       .  A
C1237      C1249   1.479       .  S
O1238      C1246   1.264       .  A
O1239      C1246   1.269       .  A
C1240      O1247   1.264       .  A
C1240      O1241   1.272       .  A
C1240      C1433   1.479       .  S
C1242      O1244   1.269       .  A
C1242      O1248   1.263       .  A
C1242      C1273   1.478       .  S
C1246      C2121   1.469       .  S
C1249      C1250   1.405       .  A
C1249      C1254   1.410       .  A
C1250      C1251   1.389       .  A
C1250      H1259   1.083       .  S
C1251      C1252   1.397       .  A
C1251      H1260   1.085       .  S
C1252      C1258   1.395       .  A
C1252      C1253   1.413       .  A
C1253      C1255   1.408       .  A
C1253      C1254   1.411       .  A
C1254      H1261   1.084       .  S
C1255      C1256   1.406       .  A
C1255      H1262   1.084       .  S
C1256      C1257   1.405       .  A
C1256      H1263   1.083       .  S
C1257      C1258   1.403       .  A
C1258      H1264   1.085       .  S
C1265      C1266   1.403       .  A
C1265      C1270   1.407       .  A
C1266      C1267   1.393       .  A
C1266      H1275   1.083       .  S
C1267      C1268   1.400       .  A
C1267      H1276   1.084       .  S
C1268      C1274   1.399       .  A
C1268      C1269   1.414       .  A
C1269      C1271   1.406       .  A
C1269      C1270   1.409       .  A
C1270      H1277   1.085       .  S
C1271      C1272   1.404       .  A
C1271      H1278   1.084       .  S
C1272      C1273   1.405       .  A
C1272      H1279   1.083       .  S
C1273      C1274   1.404       .  A
C1274      H1280   1.085       .  S
C1281      C1282   1.405       .  A
C1281      C1286   1.405       .  A
C1282      C1283   1.403       .  A
C1282      H1291   1.082       .  S
C1283      C1284   1.405       .  A
C1283      H1292   1.084       .  S
C1284      C1290   1.410       .  A
C1284      C1285   1.415       .  A
C1285      C1287   1.399       .  A
C1285      C1286   1.400       .  A
C1286      H1293   1.085       .  S
C1287      C1288   1.392       .  A
C1287      H1294   1.084       .  S
C1288      C1289   1.404       .  A
C1288      H1295   1.084       .  S
C1289      C1290   1.407       .  A
C1290      H1296   1.085       .  S
C1297      C1298   1.406       .  A
C1297      C1302   1.403       .  A
C1298      C1299   1.405       .  A
C1298      H1307   1.082       .  S
C1299      C1300   1.406       .  A
C1299      H1308   1.084       .  S
C1300      C1306   1.412       .  A
C1300      C1301   1.415       .  A
C1301      C1303   1.398       .  A
C1301      C1302   1.399       .  A
C1302      H1309   1.085       .  S
C1303      C1304   1.390       .  A
C1303      H1310   1.085       .  S
C1304      C1305   1.404       .  A
C1304      H1311   1.084       .  S
C1305      C1306   1.408       .  A
C1306      H1312   1.085       .  S
C1313      C1314   1.405       .  A
C1313      C1318   1.404       .  A
C1314      C1315   1.403       .  A
C1314      H1323   1.083       .  S
C1315      C1316   1.406       .  A
C1315      H1324   1.083       .  S
C1316      C1322   1.409       .  A
C1316      C1317   1.413       .  A
C1317      C1319   1.399       .  A
C1317      C1318   1.399       .  A
C1318      H1325   1.084       .  S
C1319      C1320   1.392       .  A
C1319      H1326   1.083       .  S
C1320      C1321   1.405       .  A
C1320      H1327   1.083       .  S
C1321      C1322   1.409       .  A
C1322      H1328   1.083       .  S
C1329      C1330   1.405       .  A
C1329      C1334   1.410       .  A
C1330      C1331   1.389       .  A
C1330      H1339   1.083       .  S
C1331      C1332   1.397       .  A
C1331      H1340   1.084       .  S
C1332      C1338   1.398       .  A
C1332      C1333   1.414       .  A
C1333      C1335   1.407       .  A
C1333      C1334   1.413       .  A
C1334      H1341   1.085       .  S
C1335      C1336   1.406       .  A
C1335      H1342   1.084       .  S
C1336      C1337   1.406       .  A
C1336      H1343   1.082       .  S
C1337      C1338   1.403       .  A
C1338      H1344   1.085       .  S
C1345      C1346   1.402       .  A
C1345      C1350   1.405       .  A
C1346      C1347   1.390       .  A
C1346      H1355   1.084       .  S
C1347      C1348   1.399       .  A
C1347      H1356   1.085       .  S
C1348      C1354   1.397       .  A
C1348      C1349   1.415       .  A
C1349      C1351   1.406       .  A
C1349      C1350   1.408       .  A
C1350      H1357   1.085       .  S
C1351      C1352   1.403       .  A
C1351      H1358   1.085       .  S
C1352      C1353   1.405       .  A
C1352      H1359   1.083       .  S
C1353      C1354   1.402       .  A
C1354      H1360   1.086       .  S
C1361      C1362   1.405   1_565  A
C1361      C1366   1.404       .  A
C1362      C1363   1.401   1_545  A
C1362      H1371   1.083       .  S
C1363      C1364   1.404       .  A
C1363      H1372   1.083       .  S
C1364      C1370   1.407       .  A
C1364      C1365   1.414       .  A
C1365      C1367   1.400       .  A
C1365      C1366   1.401       .  A
C1366      H1373   1.084       .  S
C1367      C1368   1.393       .  A
C1367      H1374   1.083       .  S
C1368      C1369   1.404       .  A
C1368      H1375   1.083       .  S
C1369      C1370   1.406       .  A
C1370      H1376   1.084       .  S
C1377      C1378   1.404       .  A
C1377      C1382   1.404       .  A
C1378      C1379   1.401       .  A
C1378      H1387   1.083       .  S
C1379      C1380   1.404       .  A
C1379      H1388   1.084       .  S
C1380      C1386   1.406       .  A
C1380      C1381   1.414       .  A
C1381      C1383   1.400       .  A
C1381      C1382   1.399       .  A
C1382      H1389   1.085       .  S
C1383      C1384   1.393       .  A
C1383      H1390   1.084       .  S
C1384      C1385   1.404       .  A
C1384      H1391   1.084       .  S
C1385      C1386   1.404       .  A
C1386      H1392   1.084       .  S
C1393      C1394   1.404       .  A
C1393      C1398   1.404       .  A
C1394      C1395   1.404       .  A
C1394      H1403   1.083       .  S
C1395      C1396   1.406       .  A
C1395      H1404   1.083       .  S
C1396      C1402   1.409       .  A
C1396      C1397   1.414       .  A
C1397      C1399   1.398       .  A
C1397      C1398   1.397       .  A
C1398      H1405   1.084       .  S
C1399      C1400   1.391       .  A
C1399      H1406   1.084       .  S
C1400      C1401   1.404       .  A
C1400      H1407   1.084       .  S
C1401      C1402   1.407       .  A
C1402      H1408   1.084       .  S
C1409      C1410   1.405       .  A
C1409      C1414   1.408       .  A
C1410      C1411   1.392       .  A
C1410      H1419   1.083       .  S
C1411      C1412   1.399       .  A
C1411      H1420   1.083       .  S
C1412      C1418   1.400       .  A
C1412      C1413   1.414       .  A
C1413      C1415   1.405       .  A
C1413      C1414   1.410       .  A
C1414      H1421   1.084       .  S
C1415      C1416   1.403       .  A
C1415      H1422   1.083       .  S
C1416      C1417   1.406       .  A
C1416      H1423   1.083   1_565  S
C1417      C1418   1.403       .  A
C1418      H1424   1.084       .  S
C1425      C1426   1.405       .  A
C1425      C1430   1.405       .  A
C1426      C1427   1.400       .  A
C1426      H1435   1.082       .  S
C1427      C1428   1.403       .  A
C1427      H1436   1.084       .  S
C1428      C1434   1.409       .  A
C1428      C1429   1.415       .  A
C1429      C1431   1.399       .  A
C1429      C1430   1.404       .  A
C1430      H1437   1.085       .  S
C1431      C1432   1.394       .  A
C1431      H1438   1.084       .  S
C1432      C1433   1.406       .  A
C1432      H1439   1.083       .  S
C1433      C1434   1.406       .  A
C1434      H1440   1.085       .  S
C1441      C1442   1.404       .  A
C1441      C1446   1.408       .  A
C1442      C1443   1.391       .  A
C1442      H1451   1.083       .  S
C1443      C1444   1.398       .  A
C1443      H1452   1.084       .  S
C1444      C1450   1.398       .  A
C1444      C1445   1.414       .  A
C1445      C1447   1.406       .  A
C1445      C1446   1.411       .  A
C1446      H1453   1.085       .  S
C1447      C1448   1.404       .  A
C1447      H1454   1.084       .  S
C1448      C1449   1.405       .  A
C1448      H1455   1.083       .  S
C1449      C1450   1.403       .  A
C1450      H1456   1.085       .  S
C1457      C1458   1.404       .  A
C1457      C1462   1.410       .  A
C1458      C1459   1.389       .  A
C1458      H1467   1.083       .  S
C1459      C1460   1.397       .  A
C1459      H1468   1.085       .  S
C1460      C1466   1.398       .  A
C1460      C1461   1.414       .  A
C1461      C1463   1.407       .  A
C1461      C1462   1.412       .  A
C1462      H1469   1.085       .  S
C1463      C1464   1.406       .  A
C1463      H1470   1.085       .  S
C1464      C1465   1.406       .  A
C1464      H1471   1.082       .  S
C1465      C1466   1.403       .  A
C1466      H1472   1.085       .  S
C1473      C1474   1.405       .  A
C1473      C1478   1.403       .  A
C1474      C1475   1.404       .  A
C1474      H1483   1.083       .  S
C1475      C1476   1.406       .  A
C1475      H1484   1.084       .  S
C1476      C1482   1.409       .  A
C1476      C1477   1.414       .  A
C1477      C1479   1.398       .  A
C1477      C1478   1.395       .  A
C1478      H1485   1.085       .  S
C1479      C1480   1.389       .  A
C1479      H1486   1.084       .  S
C1480      C1481   1.404       .  A
C1480      H1487   1.083       .  S
C1481      C1482   1.407       .  A
C1482      H1488   1.084       .  S
C1489      C1490   1.405       .  A
C1489      C1494   1.408       .  A
C1490      C1491   1.389       .  A
C1490      H1499   1.083       .  S
C1491      C1492   1.397       .  A
C1491      H1500   1.084       .  S
C1492      C1498   1.397       .  A
C1492      C1493   1.414       .  A
C1493      C1495   1.406       .  A
C1493      C1494   1.411       .  A
C1494      H1501   1.084       .  S
C1495      C1496   1.405       .  A
C1495      H1502   1.083       .  S
C1496      C1497   1.406       .  A
C1496      H1503   1.083       .  S
C1497      C1498   1.403       .  A
C1498      H1504   1.085       .  S
C1505      C1506   1.407       .  A
C1505      C1510   1.407       .  A
C1506      C1507   1.394       .  A
C1506      H1515   1.083       .  S
C1507      C1508   1.399       .  A
C1507      H1516   1.085       .  S
C1508      C1514   1.400       .  A
C1508      C1509   1.414       .  A
C1509      C1511   1.405       .  A
C1509      C1510   1.409       .  A
C1510      H1517   1.085       .  S
C1511      C1512   1.402       .  A
C1511      H1518   1.084       .  S
C1512      C1513   1.403       .  A
C1512      H1519   1.083       .  S
C1513      C1514   1.404       .  A
C1514      H1520   1.086       .  S
C1521      C1522   1.404       .  A
C1521      C1526   1.404       .  A
C1522      C1523   1.394       .  A
C1522      H1531   1.084       .  S
C1523      C1524   1.401       .  A
C1523      H1532   1.084       .  S
C1524      C1530   1.400       .  A
C1524      C1525   1.414       .  A
C1525      C1527   1.404       .  A
C1525      C1526   1.406       .  A
C1526      H1533   1.084       .  S
C1527      C1528   1.400       .  A
C1527      H1534   1.083       .  S
C1528      C1529   1.404       .  A
C1528      H1535   1.083       .  S
C1529      C1530   1.405       .  A
C1530      H1536   1.084       .  S
C1537      C1538   1.405       .  A
C1537      C1542   1.404       .  A
C1538      C1539   1.402       .  A
C1538      H1547   1.083       .  S
C1539      C1540   1.404       .  A
C1539      H1548   1.083       .  S
C1540      C1546   1.410       .  A
C1540      C1541   1.415       .  A
C1541      C1543   1.399       .  A
C1541      C1542   1.401       .  A
C1542      H1549   1.085       .  S
C1543      C1544   1.393       .  A
C1543      H1550   1.084       .  S
C1544      C1545   1.405       .  A
C1544      H1551   1.084       .  S
C1545      C1546   1.405       .  A
C1546      H1552   1.084       .  S
C1553      C1554   1.405       .  A
C1553      C1558   1.409       .  A
C1554      C1555   1.392       .  A
C1554      H1563   1.084       .  S
C1555      C1556   1.399       .  A
C1555      H1564   1.084       .  S
C1556      C1562   1.402       .  A
C1556      C1557   1.414       .  A
C1557      C1559   1.406       .  A
C1557      C1558   1.414       .  A
C1558      H1565   1.084       .  S
C1559      C1560   1.406       .  A
C1559      H1566   1.083       .  S
C1560      C1561   1.406       .  A
C1560      H1567   1.083       .  S
C1561      C1562   1.405       .  A
C1562      H1568   1.084       .  S
C1569      C1570   1.405       .  A
C1569      C1574   1.404       .  A
C1570      C1571   1.402       .  A
C1570      H1579   1.083       .  S
C1571      C1572   1.404       .  A
C1571      H1580   1.083       .  S
C1572      C1578   1.410       .  A
C1572      C1573   1.415       .  A
C1573      C1575   1.398       .  A
C1573      C1574   1.401       .  A
C1574      H1581   1.084       .  S
C1575      C1576   1.392       .  A
C1575      H1582   1.083       .  S
C1576      C1577   1.406       .  A
C1576      H1583   1.084       .  S
C1577      C1578   1.407       .  A
C1578      H1584   1.083       .  S
C1585      C1586   1.405       .  A
C1585      C1590   1.403       .  A
C1586      C1587   1.404       .  A
C1586      H1595   1.083       .  S
C1587      C1588   1.406       .  A
C1587      H1596   1.084       .  S
C1588      C1594   1.411       .  A
C1588      C1589   1.414       .  A
C1589      C1591   1.398       .  A
C1589      C1590   1.400       .  A
C1590      H1597   1.085       .  S
C1591      C1592   1.392       .  A
C1591      H1598   1.084       .  S
C1592      C1593   1.406       .  A
C1592      H1599   1.083       .  S
C1593      C1594   1.409       .  A
C1594      H1600   1.084       .  S
C1601      C1602   1.406       .  A
C1601      C1606   1.408       .  A
C1602      C1603   1.394       .  A
C1602      H1611   1.083       .  S
C1603      C1604   1.400       .  A
C1603      H1612   1.085       .  S
C1604      C1610   1.402       .  A
C1604      C1605   1.414       .  A
C1605      C1607   1.406       .  A
C1605      C1606   1.412       .  A
C1606      H1613   1.085       .  S
C1607      C1608   1.404       .  A
C1607      H1614   1.084       .  S
C1608      C1609   1.406       .  A
C1608      H1615   1.083       .  S
C1609      C1610   1.405       .  A
C1610      H1616   1.085       .  S
C1617      C1618   1.406       .  A
C1617      C1622   1.407       .  A
C1618      C1619   1.395       .  A
C1618      H1627   1.083       .  S
C1619      C1620   1.400       .  A
C1619      H1628   1.083       .  S
C1620      C1626   1.402       .  A
C1620      C1621   1.414       .  A
C1621      C1623   1.404       .  A
C1621      C1622   1.407       .  A
C1622      H1629   1.084       .  S
C1623      C1624   1.400       .  A
C1623      H1630   1.083       .  S
C1624      C1625   1.404       .  A
C1624      H1631   1.083       .  S
C1625      C1626   1.404       .  A
C1626      H1632   1.084       .  S
C1633      C1634   1.405       .  A
C1633      C1638   1.405       .  A
C1634      C1635   1.404       .  A
C1634      H1643   1.083       .  S
C1635      C1636   1.406       .  A
C1635      H1644   1.084       .  S
C1636      C1642   1.410       .  A
C1636      C1637   1.414       .  A
C1637      C1639   1.399       .  A
C1637      C1638   1.400       .  A
C1638      H1645   1.085       .  S
C1639      C1640   1.393       .  A
C1639      H1646   1.084       .  S
C1640      C1641   1.405       .  A
C1640      H1647   1.083       .  S
C1641      C1642   1.408       .  A
C1642      H1648   1.084       .  S
C1649      C1650   1.406       .  A
C1649      C1654   1.410       .  A
C1650      C1651   1.392       .  A
C1650      H1659   1.083       .  S
C1651      C1652   1.398       .  A
C1651      H1660   1.083       .  S
C1652      C1658   1.400       .  A
C1652      C1653   1.414       .  A
C1653      C1655   1.406       .  A
C1653      C1654   1.412       .  A
C1654      H1661   1.083       .  S
C1655      C1656   1.405       .  A
C1655      H1662   1.083       .  S
C1656      C1657   1.405       .  A
C1656      H1663   1.083       .  S
C1657      C1658   1.404       .  A
C1658      H1664   1.084       .  S
C1665      C1666   1.404       .  A
C1665      C1670   1.408       .  A
C1666      C1667   1.390       .  A
C1666      H1675   1.084       .  S
C1667      C1668   1.398       .  A
C1667      H1676   1.083       .  S
C1668      C1674   1.396       .  A
C1668      C1669   1.413       .  A
C1669      C1671   1.406       .  A
C1669      C1670   1.408       .  A
C1670      H1677   1.083       .  S
C1671      C1672   1.404       .  A
C1671      H1678   1.083       .  S
C1672      C1673   1.405       .  A
C1672      H1679   1.083       .  S
C1673      C1674   1.403       .  A
C1674      H1680   1.084       .  S
C1681      C1682   1.405       .  A
C1681      C1686   1.404       .  A
C1682      C1683   1.400       .  A
C1682      H1691   1.083       .  S
C1683      C1684   1.404       .  A
C1683      H1692   1.084       .  S
C1684      C1690   1.408       .  A
C1684      C1685   1.415       .  A
C1685      C1687   1.400       .  A
C1685      C1686   1.401       .  A
C1686      H1693   1.085       .  S
C1687      C1688   1.394       .  A
C1687      H1694   1.084       .  S
C1688      C1689   1.405       .  A
C1688      H1695   1.083       .  S
C1689      C1690   1.406       .  A
C1690      H1696   1.084       .  S
C1697      C1698   1.406       .  A
C1697      C1702   1.401       .  A
C1698      C1699   1.407       .  A
C1698      H1707   1.082       .  S
C1699      C1700   1.408       .  A
C1699      H1708   1.084       .  S
C1700      C1706   1.413       .  A
C1700      C1701   1.414       .  A
C1701      C1703   1.396       .  A
C1701      C1702   1.395       .  A
C1702      H1709   1.085       .  S
C1703      C1704   1.386       .  A
C1703      H1710   1.084       .  S
C1704      C1705   1.405       .  A
C1704      H1711   1.083       .  S
C1705      C1706   1.410       .  A
C1706      H1712   1.085       .  S
C1713      C1714   1.406       .  A
C1713      C1718   1.407       .  A
C1714      C1715   1.394       .  A
C1714      H1723   1.083       .  S
C1715      C1716   1.399       .  A
C1715      H1724   1.083       .  S
C1716      C1722   1.402       .  A
C1716      C1717   1.415       .  A
C1717      C1719   1.404       .  A
C1717      C1718   1.408       .  A
C1718      H1725   1.083       .  S
C1719      C1720   1.401       .  A
C1719      H1726   1.083       .  S
C1720      C1721   1.404       .  A
C1720      H1727   1.083       .  S
C1721      C1722   1.403       .  A
C1722      H1728   1.084       .  S
C1729      C1730   1.403       .  A
C1729      C1734   1.408       .  A
C1730      C1731   1.389       .  A
C1730      H1739   1.083       .  S
C1731      C1732   1.398       .  A
C1731      H1740   1.084       .  S
C1732      C1738   1.396       .  A
C1732      C1733   1.414       .  A
C1733      C1735   1.407       .  A
C1733      C1734   1.411       .  A
C1734      H1741   1.085       .  S
C1735      C1736   1.405       .  A
C1735      H1742   1.084       .  S
C1736      C1737   1.405       .  A
C1736      H1743   1.082       .  S
C1737      C1738   1.403       .  A
C1738      H1744   1.085       .  S
C1745      C1746   1.406       .  A
C1745      C1750   1.408       .  A
C1746      C1747   1.404       .  A
C1746      H1755   1.083       .  S
C1747      C1748   1.406       .  A
C1747      H1756   1.084       .  S
C1748      C1754   1.413       .  A
C1748      C1749   1.414       .  A
C1749      C1751   1.402       .  A
C1749      C1750   1.406       .  A
C1750      H1757   1.085       .  S
C1751      C1752   1.397       .  A
C1751      H1758   1.085       .  S
C1752      C1753   1.406       .  A
C1752      H1759   1.083       .  S
C1753      C1754   1.410       .  A
C1754      H1760   1.084       .  S
C1761      C1762   1.405       .  A
C1761      C1766   1.405       .  A
C1762      C1763   1.404       .  A
C1762      H1771   1.083       .  S
C1763      C1764   1.406       .  A
C1763      H1772   1.084       .  S
C1764      C1770   1.414       .  A
C1764      C1765   1.415       .  A
C1765      C1767   1.398       .  A
C1765      C1766   1.404       .  A
C1766      H1773   1.085       .  S
C1767      C1768   1.393       .  A
C1767      H1774   1.084       .  S
C1768      C1769   1.407       .  A
C1768      H1775   1.083       .  S
C1769      C1770   1.410       .  A
C1770      H1776   1.084       .  S
C1777      C1778   1.404       .  A
C1777      C1782   1.409       .  A
C1778      C1779   1.393       .  A
C1778      H1787   1.083       .  S
C1779      C1780   1.399       .  A
C1779      H1788   1.084       .  S
C1780      C1786   1.401       .  A
C1780      C1781   1.414       .  A
C1781      C1783   1.407       .  A
C1781      C1782   1.413       .  A
C1782      H1789   1.084       .  S
C1783      C1784   1.406       .  A
C1783      H1790   1.084       .  S
C1784      C1785   1.406       .  A
C1784      H1791   1.083       .  S
C1785      C1786   1.405       .  A
C1786      H1792   1.085       .  S
C1793      C1794   1.406       .  A
C1793      C1798   1.407       .  A
C1794      C1795   1.392       .  A
C1794      H1803   1.084       .  S
C1795      C1796   1.399       .  A
C1795      H1804   1.083       .  S
C1796      C1802   1.399       .  A
C1796      C1797   1.414       .  A
C1797      C1799   1.405       .  A
C1797      C1798   1.407       .  A
C1798      H1805   1.084       .  S
C1799      C1800   1.402       .  A
C1799      H1806   1.083       .  S
C1800      C1801   1.404       .  A
C1800      H1807   1.083       .  S
C1801      C1802   1.403       .  A
C1802      H1808   1.084       .  S
C1809      C1810   1.405       .  A
C1809      C1814   1.404       .  A
C1810      C1811   1.404       .  A
C1810      H1819   1.083       .  S
C1811      C1812   1.406       .  A
C1811      H1820   1.084       .  S
C1812      C1818   1.411       .  A
C1812      C1813   1.414       .  A
C1813      C1815   1.398       .  A
C1813      C1814   1.400       .  A
C1814      H1821   1.084       .  S
C1815      C1816   1.391       .  A
C1815      H1822   1.084       .  S
C1816      C1817   1.405       .  A
C1816      H1823   1.084       .  S
C1817      C1818   1.408       .  A
C1818      H1824   1.084       .  S
C1825      C1826   1.405       .  A
C1825      C1830   1.405       .  A
C1826      C1827   1.404       .  A
C1826      H1835   1.083       .  S
C1827      C1828   1.406       .  A
C1827      H1836   1.083       .  S
C1828      C1834   1.412       .  A
C1828      C1829   1.414       .  A
C1829      C1831   1.399       .  A
C1829      C1830   1.400       .  A
C1830      H1837   1.084       .  S
C1831      C1832   1.392       .  A
C1831      H1838   1.084       .  S
C1832      C1833   1.404       .  A
C1832      H1839   1.084       .  S
C1833      C1834   1.408       .  A
C1834      H1840   1.084       .  S
C1841      C1842   1.406       .  A
C1841      C1846   1.409       .  A
C1842      C1843   1.392       .  A
C1842      H1851   1.083       .  S
C1843      C1844   1.398       .  A
C1843      H1852   1.084       .  S
C1844      C1850   1.401       .  A
C1844      C1845   1.414       .  A
C1845      C1847   1.406       .  A
C1845      C1846   1.413       .  A
C1846      H1853   1.084       .  S
C1847      C1848   1.405       .  A
C1847      H1854   1.084       .  S
C1848      C1849   1.406       .  A
C1848      H1855   1.082       .  S
C1849      C1850   1.405       .  A
C1850      H1856   1.085       .  S
C1857      C1858   1.405       .  A
C1857      C1862   1.405       .  A
C1858      C1859   1.403       .  A
C1858      H1867   1.083       .  S
C1859      C1860   1.405       .  A
C1859      H1868   1.084       .  S
C1860      C1866   1.411       .  A
C1860      C1861   1.414       .  A
C1861      C1863   1.400       .  A
C1861      C1862   1.404       .  A
C1862      H1869   1.085       .  S
C1863      C1864   1.396       .  A
C1863      H1870   1.084       .  S
C1864      C1865   1.407       .  A
C1864      H1871   1.083       .  S
C1865      C1866   1.409       .  A
C1866      H1872   1.084       .  S
C1873      C1874   1.405       .  A
C1873      C1878   1.404       .  A
C1874      C1875   1.406       .  A
C1874      H1883   1.083       .  S
C1875      C1876   1.407       .  A
C1875      H1884   1.083       .  S
C1876      C1882   1.413       .  A
C1876      C1877   1.414       .  A
C1877      C1879   1.398       .  A
C1877      C1878   1.399       .  A
C1878      H1885   1.084       .  S
C1879      C1880   1.390       .  A
C1879      H1886   1.083       .  S
C1880      C1881   1.405       .  A
C1880      H1887   1.084       .  S
C1881      C1882   1.410       .  A
C1882      H1888   1.084       .  S
C1889      C1890   1.405       .  A
C1889      C1894   1.402       .  A
C1890      C1891   1.403       .  A
C1890      H1899   1.083       .  S
C1891      C1892   1.406       .  A
C1891      H1900   1.084       .  S
C1892      C1898   1.408       .  A
C1892      C1893   1.415       .  A
C1893      C1895   1.399       .  A
C1893      C1894   1.396       .  A
C1894      H1901   1.086       .  S
C1895      C1896   1.390       .  A
C1895      H1902   1.085       .  S
C1896      C1897   1.402       .  A
C1896      H1903   1.084       .  S
C1897      C1898   1.406       .  A
C1898      H1904   1.085       .  S
C1905      C1906   1.405       .  A
C1905      C1910   1.409       .  A
C1906      C1907   1.393       .  A
C1906      H1915   1.083       .  S
C1907      C1908   1.399       .  A
C1907      H1916   1.083       .  S
C1908      C1914   1.400       .  A
C1908      C1909   1.413       .  A
C1909      C1911   1.406       .  A
C1909      C1910   1.409       .  A
C1910      H1917   1.083       .  S
C1911      C1912   1.403       .  A
C1911      H1918   1.083       .  S
C1912      C1913   1.406       .  A
C1912      H1919   1.083       .  S
C1913      C1914   1.403       .  A
C1914      H1920   1.084       .  S
C1921      C1922   1.406       .  A
C1921      C1926   1.407       .  A
C1922      C1923   1.391       .  A
C1922      H1931   1.083       .  S
C1923      C1924   1.398       .  A
C1923      H1932   1.084       .  S
C1924      C1930   1.398       .  A
C1924      C1925   1.414       .  A
C1925      C1927   1.405       .  A
C1925      C1926   1.409       .  A
C1926      H1933   1.084       .  S
C1927      C1928   1.403       .  A
C1927      H1934   1.084       .  S
C1928      C1929   1.405       .  A
C1928      H1935   1.083       .  S
C1929      C1930   1.403       .  A
C1930      H1936   1.085       .  S
C1937      C1938   1.404       .  A
C1937      C1942   1.406       .  A
C1938      C1939   1.402       .  A
C1938      H1947   1.083       .  S
C1939      C1940   1.405       .  A
C1939      H1948   1.084       .  S
C1940      C1946   1.410       .  A
C1940      C1941   1.414       .  A
C1941      C1943   1.400       .  A
C1941      C1942   1.403       .  A
C1942      H1949   1.085       .  S
C1943      C1944   1.395       .  A
C1943      H1950   1.084       .  S
C1944      C1945   1.407       .  A
C1944      H1951   1.083       .  S
C1945      C1946   1.407       .  A
C1946      H1952   1.084       .  S
C1953      C1954   1.405       .  A
C1953      C1958   1.407       .  A
C1954      C1955   1.390       .  A
C1954      H1963   1.083       .  S
C1955      C1956   1.398       .  A
C1955      H1964   1.084       .  S
C1956      C1962   1.398       .  A
C1956      C1957   1.414       .  A
C1957      C1959   1.405       .  A
C1957      C1958   1.408       .  A
C1958      H1965   1.085       .  S
C1959      C1960   1.403       .  A
C1959      H1966   1.084       .  S
C1960      C1961   1.406       .  A
C1960      H1967   1.083       .  S
C1961      C1962   1.402       .  A
C1962      H1968   1.085       .  S
C1969      C1970   1.404       .  A
C1969      C1974   1.410       .  A
C1970      C1971   1.389       .  A
C1970      H1979   1.083       .  S
C1971      C1972   1.397       .  A
C1971      H1980   1.084       .  S
C1972      C1978   1.395       .  A
C1972      C1973   1.413       .  A
C1973      C1975   1.408       .  A
C1973      C1974   1.412       .  A
C1974      H1981   1.084       .  S
C1975      C1976   1.407       .  A
C1975      H1982   1.084       .  S
C1976      C1977   1.406       .  A
C1976      H1983   1.083       .  S
C1977      C1978   1.402       .  A
C1978      H1984   1.085       .  S
C1985      C1986   1.404       .  A
C1985      C1990   1.405       .  A
C1986      C1987   1.391       .  A
C1986      H1995   1.083       .  S
C1987      C1988   1.398       .  A
C1987      H1996   1.085       .  S
C1988      C1994   1.396       .  A
C1988      C1989   1.414       .  A
C1989      C1991   1.404       .  A
C1989      C1990   1.406       .  A
C1990      H1997   1.085       .  S
C1991      C1992   1.401       .  A
C1991      H1998   1.084       .  S
C1992      C1993   1.405       .  A
C1992      H1999   1.083       .  S
C1993      C1994   1.403       .  A
C1994      H2000   1.085       .  S
C2001      C2002   1.404       .  A
C2001      C2006   1.407       .  A
C2002      C2003   1.396       .  A
C2002      H2011   1.084       .  S
C2003      C2004   1.401       .  A
C2003      H2012   1.083       .  S
C2004      C2010   1.403       .  A
C2004      C2005   1.414       .  A
C2005      C2007   1.404       .  A
C2005      C2006   1.409       .  A
C2006      H2013   1.083       .  S
C2007      C2008   1.402       .  A
C2007      H2014   1.083       .  S
C2008      C2009   1.406       .  A
C2008      H2015   1.083       .  S
C2009      C2010   1.406       .  A
C2010      H2016   1.083       .  S
C2017      C2018   1.405       .  A
C2017      C2022   1.410       .  A
C2018      C2019   1.385       .  A
C2018      H2027   1.084       .  S
C2019      C2020   1.394       .  A
C2019      H2028   1.083       .  S
C2020      C2026   1.393       .  A
C2020      C2021   1.414       .  A
C2021      C2023   1.408       .  A
C2021      C2022   1.413       .  A
C2022      H2029   1.084       .  S
C2023      C2024   1.407       .  A
C2023      H2030   1.083       .  S
C2024      C2025   1.406       .  A
C2024      H2031   1.083       .  S
C2025      C2026   1.399       .  A
C2026      H2032   1.085       .  S
C2033      C2034   1.406       .  A
C2033      C2038   1.408       .  A
C2034      C2035   1.392       .  A
C2034      H2043   1.083       .  S
C2035      C2036   1.398       .  A
C2035      H2044   1.084       .  S
C2036      C2042   1.400       .  A
C2036      C2037   1.415       .  A
C2037      C2039   1.405       .  A
C2037      C2038   1.410       .  A
C2038      H2045   1.084       .  S
C2039      C2040   1.403       .  A
C2039      H2046   1.084       .  S
C2040      C2041   1.405       .  A
C2040      H2047   1.083       .  S
C2041      C2042   1.403       .  A
C2042      H2048   1.085       .  S
C2049      C2050   1.406       .  A
C2049      C2054   1.402       .  A
C2050      C2051   1.404       .  A
C2050      H2059   1.082       .  S
C2051      C2052   1.406       .  A
C2051      H2060   1.085       .  S
C2052      C2058   1.411       .  A
C2052      C2053   1.415       .  A
C2053      C2055   1.397       .  A
C2053      C2054   1.397       .  A
C2054      H2061   1.085       .  S
C2055      C2056   1.389       .  A
C2055      H2062   1.084       .  S
C2056      C2057   1.403       .  A
C2056      H2063   1.083       .  S
C2057      C2058   1.408       .  A
C2058      H2064   1.085       .  S
C2065      C2066   1.405       .  A
C2065      C2070   1.408       .  A
C2066      C2067   1.390       .  A
C2066      H2075   1.084       .  S
C2067      C2068   1.397       .  A
C2067      H2076   1.084       .  S
C2068      C2074   1.398       .  A
C2068      C2069   1.415       .  A
C2069      C2071   1.406       .  A
C2069      C2070   1.411       .  A
C2070      H2077   1.084       .  S
C2071      C2072   1.404       .  A
C2071      H2078   1.084       .  S
C2072      C2073   1.405       .  A
C2072      H2079   1.083       .  S
C2073      C2074   1.403       .  A
C2074      H2080   1.085       .  S
C2081      C2082   1.406       .  A
C2081      C2086   1.406       .  A
C2082      C2083   1.403       .  A
C2082      H2091   1.083   1_655  S
C2083      C2084   1.405       .  A
C2083      H2092   1.084       .  S
C2084      C2090   1.411       .  A
C2084      C2085   1.414       .  A
C2085      C2087   1.400       .  A
C2085      C2086   1.403       .  A
C2086      H2093   1.085       .  S
C2087      C2088   1.395       .  A
C2087      H2094   1.084       .  S
C2088      C2089   1.405       .  A
C2088      H2095   1.083       .  S
C2089      C2090   1.408       .  A
C2090      H2096   1.084       .  S
C2097      C2098   1.407       .  A
C2097      C2102   1.408       .  A
C2098      C2099   1.394       .  A
C2098      H2107   1.083       .  S
C2099      C2100   1.399       .  A
C2099      H2108   1.085       .  S
C2100      C2106   1.403       .  A
C2100      C2101   1.415       .  A
C2101      C2103   1.404       .  A
C2101      C2102   1.410       .  A
C2102      H2109   1.085       .  S
C2103      C2104   1.402       .  A
C2103      H2110   1.085       .  S
C2104      C2105   1.406       .  A
C2104      H2111   1.083       .  S
C2105      C2106   1.404       .  A
C2106      H2112   1.085       .  S
C2113      C2114   1.404       .  A
C2113      C2118   1.404       .  A
C2114      C2115   1.399       .  A
C2114      H2123   1.083       .  S
C2115      C2116   1.403       .  A
C2115      H2124   1.084       .  S
C2116      C2122   1.404       .  A
C2116      C2117   1.414       .  A
C2117      C2119   1.400       .  A
C2117      C2118   1.398       .  A
C2118      H2125   1.086       .  S
C2119      C2120   1.393       .  A
C2119      H2126   1.085       .  S
C2120      C2121   1.404       .  A
C2120      H2127   1.083       .  S
C2121      C2122   1.403       .  A
C2122      H2128   1.085       .  S
C2129      C2130   1.404       .  A
C2129      C2134   1.407       .  A
C2130      C2131   1.393       .  A
C2130      H2139   1.083       .  S
C2131      C2132   1.400       .  A
C2131      H2140   1.084       .  S
C2132      C2138   1.400       .  A
C2132      C2133   1.414       .  A
C2133      C2135   1.405       .  A
C2133      C2134   1.409       .  A
C2134      H2141   1.084       .  S
C2135      C2136   1.403       .  A
C2135      H2142   1.084       .  S
C2136      C2137   1.406       .  A
C2136      H2143   1.083       .  S
C2137      C2138   1.404       .  A
C2138      H2144   1.084       .  S
C2145      C2146   1.404       .  A
C2145      C2150   1.402       .  A
C2146      C2147   1.402       .  A
C2146      H2155   1.083       .  S
C2147      C2148   1.405       .  A
C2147      H2156   1.084       .  S
C2148      C2154   1.408       .  A
C2148      C2149   1.414       .  A
C2149      C2151   1.398       .  A
C2149      C2150   1.397       .  A
C2150      H2157   1.086       .  S
C2151      C2152   1.391       .  A
C2151      H2158   1.085       .  S
C2152      C2153   1.406       .  A
C2152      H2159   1.083       .  S
C2153      C2154   1.407       .  A
C2154      H2160   1.084       .  S
C2161      C2162   1.406       .  A
C2161      C2166   1.404       .  A
C2162      C2163   1.405       .  A
C2162      H2171   1.083       .  S
C2163      C2164   1.407       .  A
C2163      H2172   1.084       .  S
C2164      C2170   1.412       .  A
C2164      C2165   1.414       .  A
C2165      C2167   1.398       .  A
C2165      C2166   1.400       .  A
C2166      H2173   1.086       .  S
C2167      C2168   1.392       .  A
C2167      H2174   1.085       .  S
C2168      C2169   1.406       .  A
C2168      H2175   1.083       .  S
C2169      C2170   1.410       .  A
C2170      H2176   1.085       .  S
C2177      C2178   1.404       .  A
C2177      C2182   1.406       .  A
C2178      C2179   1.392       .  A
C2178      H2187   1.083       .  S
C2179      C2180   1.399       .  A
C2179      H2188   1.085       .  S
C2180      C2186   1.400       .  A
C2180      C2181   1.415       .  A
C2181      C2183   1.405       .  A
C2181      C2182   1.410       .  A
C2182      H2189   1.085       .  S
C2183      C2184   1.402       .  A
C2183      H2190   1.084       .  S
C2184      C2185   1.405       .  A
C2184      H2191   1.082       .  S
C2185      C2186   1.404       .  A
C2186      H2192   1.086       .  S
C2193      C2194   1.404       .  A
C2193      C2198   1.406       .  A
C2194      C2195   1.403       .  A
C2194      H2203   1.083       .  S
C2195      C2196   1.405       .  A
C2195      H2204   1.084       .  S
C2196      C2202   1.411       .  A
C2196      C2197   1.414       .  A
C2197      C2199   1.400       .  A
C2197      C2198   1.403       .  A
C2198      H2205   1.085       .  S
C2199      C2200   1.395       .  A
C2199      H2206   1.085       .  S
C2200      C2201   1.407       .  A
C2200      H2207   1.083       .  S
C2201      C2202   1.409       .  A
C2202      H2208   1.084       .  S
C2209      C2210   1.403       .  A
C2209      C2214   1.407       .  A
C2210      C2211   1.390       .  A
C2210      H2219   1.084       .  S
C2211      C2212   1.398       .  A
C2211      H2220   1.084       .  S
C2212      C2218   1.396       .  A
C2212      C2213   1.414       .  A
C2213      C2215   1.406       .  A
C2213      C2214   1.410       .  A
C2214      H2221   1.084       .  S
C2215      C2216   1.405       .  A
C2215      H2222   1.083       .  S
C2216      C2217   1.405       .  A
C2216      H2223   1.083       .  S
C2217      C2218   1.404       .  A
C2218      H2224   1.085       .  S
C2225      C2226   1.405       .  A
C2225      C2230   1.405       .  A
C2226      C2227   1.403       .  A
C2226      H2235   1.083       .  S
C2227      C2228   1.405       .  A
C2227      H2236   1.084       .  S
C2228      C2234   1.410       .  A
C2228      C2229   1.414       .  A
C2229      C2231   1.399       .  A
C2229      C2230   1.402       .  A
C2230      H2237   1.086       .  S
C2231      C2232   1.394       .  A
C2231      H2238   1.085       .  S
C2232      C2233   1.407       .  A
C2232      H2239   1.083       .  S
C2233      C2234   1.408       .  A
C2234      H2240   1.085       .  S
C2241      C2242   1.407       .  A
C2241      C2246   1.408       .  A
C2242      C2243   1.394       .  A
C2242      H2251   1.083       .  S
C2243      C2244   1.399       .  A
C2243      H2252   1.084       .  S
C2244      C2250   1.406       .  A
C2244      C2245   1.415       .  A
C2245      C2247   1.404       .  A
C2245      C2246   1.414       .  A
C2246      H2253   1.084       .  S
C2247      C2248   1.403       .  A
C2247      H2254   1.084       .  S
C2248      C2249   1.406       .  A
C2248      H2255   1.082       .  S
C2249      C2250   1.406       .  A
C2250      H2256   1.085       .  S
C2257      C2258   1.406       .  A
C2257      C2262   1.410       .  A
C2258      C2259   1.388       .  A
C2258      H2267   1.083       .  S
C2259      C2260   1.397       .  A
C2259      H2268   1.084       .  S
C2260      C2266   1.395       .  A
C2260      C2261   1.413       .  A
C2261      C2263   1.408       .  A
C2261      C2262   1.412       .  A
C2262      H2269   1.084       .  S
C2263      C2264   1.407       .  A
C2263      H2270   1.083       .  S
C2264      C2265   1.405       .  A
C2264      H2271   1.083       .  S
C2265      C2266   1.403       .  A
C2266      H2272   1.085       .  S
C2273      C2274   1.405       .  A
C2273      C2278   1.404       .  A
C2274      C2275   1.402       .  A
C2274      H2283   1.083       .  S
C2275      C2276   1.405       .  A
C2275      H2284   1.083       .  S
C2276      C2282   1.409       .  A
C2276      C2277   1.414       .  A
C2277      C2279   1.398       .  A
C2277      C2278   1.399       .  A
C2278      H2285   1.084       .  S
C2279      C2280   1.391       .  A
C2279      H2286   1.083       .  S
C2280      C2281   1.405       .  A
C2280      H2287   1.084       .  S
C2281      C2282   1.407       .  A
C2282      H2288   1.083       .  S
C2289      C2290   1.405       .  A
C2289      C2294   1.403       .  A
C2290      C2291   1.404       .  A
C2290      H2299   1.083       .  S
C2291      C2292   1.407       .  A
C2291      H2300   1.084       .  S
C2292      C2298   1.411       .  A
C2292      C2293   1.414       .  A
C2293      C2295   1.397       .  A
C2293      C2294   1.396       .  A
C2294      H2301   1.085       .  S
C2295      C2296   1.390       .  A
C2295      H2302   1.084       .  S
C2296      C2297   1.404       .  A
C2296      H2303   1.084       .  S
C2297      C2298   1.408       .  A
C2298      H2304   1.084       .  S
C2305      C2306   1.405       .  A
C2305      C2310   1.407       .  A
C2306      C2307   1.396       .  A
C2306      H2315   1.083       .  S
C2307      C2308   1.401       .  A
C2307      H2316   1.084       .  S
C2308      C2314   1.404       .  A
C2308      C2309   1.415       .  A
C2309      C2311   1.404       .  A
C2309      C2310   1.409       .  A
C2310      H2317   1.084       .  S
C2311      C2312   1.401       .  A
C2311      H2318   1.083       .  S
C2312      C2313   1.405       .  A
C2312      H2319   1.083       .  S
C2313      C2314   1.406       .  A
C2314      H2320   1.085       .  S
C2321      C2322   1.405       .  A
C2321      C2326   1.404       .  A
C2322      C2323   1.400       .  A
C2322      H2331   1.083   1_554  S
C2323      C2324   1.404       .  A
C2323      H2332   1.083       .  S
C2324      C2330   1.407       .  A
C2324      C2325   1.415       .  A
C2325      C2327   1.399       .  A
C2325      C2326   1.400       .  A
C2326      H2333   1.084       .  S
C2327      C2328   1.392       .  A
C2327      H2334   1.083       .  S
C2328      C2329   1.404       .  A
C2328      H2335   1.083       .  S
C2329      C2330   1.405       .  A
C2330      H2336   1.084       .  S
C2337      C2338   1.405       .  A
C2337      C2342   1.408       .  A
C2338      C2339   1.390       .  A
C2338      H2347   1.083       .  S
C2339      C2340   1.398       .  A
C2339      H2348   1.084       .  S
C2340      C2346   1.397       .  A
C2340      C2341   1.414       .  A
C2341      C2343   1.406       .  A
C2341      C2342   1.408       .  A
C2342      H2349   1.084       .  S
C2343      C2344   1.404       .  A
C2343      H2350   1.084       .  S
C2344      C2345   1.405       .  A
C2344      H2351   1.083       .  S
C2345      C2346   1.402       .  A
C2346      H2352   1.084       .  S
C2353      C2354   1.405       .  A
C2353      C2358   1.403       .  A
C2354      C2355   1.404       .  A
C2354      H2363   1.083       .  S
C2355      C2356   1.406       .  A
C2355      H2364   1.083       .  S
C2356      C2362   1.409       .  A
C2356      C2357   1.414       .  A
C2357      C2359   1.398       .  A
C2357      C2358   1.396       .  A
C2358      H2365   1.084       .  S
C2359      C2360   1.390       .  A
C2359      H2366   1.083       .  S
C2360      C2361   1.403       .  A
C2360      H2367   1.084       .  S
C2361      C2362   1.407       .  A
C2362      H2368   1.084       .  S
C2369      C2370   1.405       .  A
C2369      C2374   1.404       .  A
C2370      C2371   1.401       .  A
C2370      H2379   1.083       .  S
C2371      C2372   1.404       .  A
C2371      H2380   1.084       .  S
C2372      C2378   1.407       .  A
C2372      C2373   1.414       .  A
C2373      C2375   1.400       .  A
C2373      C2374   1.400       .  A
C2374      H2381   1.085       .  S
C2375      C2376   1.393       .  A
C2375      H2382   1.085       .  S
C2376      C2377   1.404       .  A
C2376      H2383   1.083       .  S
C2377      C2378   1.407       .  A
C2378      H2384   1.085       .  S
C2385      C2386   1.405       .  A
C2385      C2390   1.404       .  A
C2386      C2387   1.403       .  A
C2386      H2395   1.082       .  S
C2387      C2388   1.405       .  A
C2387      H2396   1.084       .  S
C2388      C2394   1.409       .  A
C2388      C2389   1.414       .  A
C2389      C2391   1.399       .  A
C2389      C2390   1.399       .  A
C2390      H2397   1.086       .  S
C2391      C2392   1.393       .  A
C2391      H2398   1.085       .  S
C2392      C2393   1.405       .  A
C2392      H2399   1.083       .  S
C2393      C2394   1.407       .  A
C2394      H2400   1.085       .  S
C2401      C2402   1.405       .  A
C2401      C2406   1.404       .  A
C2402      C2403   1.402       .  A
C2402      H2411   1.082       .  S
C2403      C2404   1.404       .  A
C2403      H2412   1.084       .  S
C2404      C2410   1.409       .  A
C2404      C2405   1.415       .  A
C2405      C2407   1.399       .  A
C2405      C2406   1.400       .  A
C2406      H2413   1.085       .  S
C2407      C2408   1.392       .  A
C2407      H2414   1.084       .  S
C2408      C2409   1.405       .  A
C2408      H2415   1.084       .  S
C2409      C2410   1.406       .  A
C2410      H2416   1.085       .  S
C2417      C2418   1.405       .  A
C2417      C2422   1.401       .  A
C2418      C2419   1.407       .  A
C2418      H2427   1.083       .  S
C2419      C2420   1.408       .  A
C2419      H2428   1.084       .  S
C2420      C2426   1.412       .  A
C2420      C2421   1.414       .  A
C2421      C2423   1.395       .  A
C2421      C2422   1.394       .  A
C2422      H2429   1.086       .  S
C2423      C2424   1.386       .  A
C2423      H2430   1.085       .  S
C2424      C2425   1.406       .  A
C2424      H2431   1.083       .  S
C2425      C2426   1.410       .  A
C2426      H2432   1.084       .  S
C2433      C2434   1.406       .  A
C2433      C2438   1.405       .  A
C2434      C2435   1.393       .  A
C2434      H2443   1.083       .  S
C2435      C2436   1.399       .  A
C2435      H2444   1.085       .  S
C2436      C2442   1.400       .  A
C2436      C2437   1.414       .  A
C2437      C2439   1.404       .  A
C2437      C2438   1.406       .  A
C2438      H2445   1.085       .  S
C2439      C2440   1.401       .  A
C2439      H2446   1.084       .  S
C2440      C2441   1.405       .  A
C2440      H2447   1.082       .  S
C2441      C2442   1.404       .  A
C2442      H2448   1.085       .  S
C2449      C2450   1.404       .  A
C2449      C2454   1.405       .  A
C2450      C2451   1.393       .  A
C2450      H2459   1.083       .  S
C2451      C2452   1.400       .  A
C2451      H2460   1.084       .  S
C2452      C2458   1.400       .  A
C2452      C2453   1.415       .  A
C2453      C2455   1.403       .  A
C2453      C2454   1.405       .  A
C2454      H2461   1.085       .  S
C2455      C2456   1.399       .  A
C2455      H2462   1.084       .  S
C2456      C2457   1.405       .  A
C2456      H2463   1.083       .  S
C2457      C2458   1.403       .  A
C2458      H2464   1.085       .  S
C2465      C2466   1.406       .  A
C2465      C2470   1.402       .  A
C2466      C2467   1.404       .  A
C2466      H2475   1.083       .  S
C2467      C2468   1.406       .  A
C2467      H2476   1.084       .  S
C2468      C2474   1.410       .  A
C2468      C2469   1.414       .  A
C2469      C2471   1.398       .  A
C2469      C2470   1.398       .  A
C2470      H2477   1.084       .  S
C2471      C2472   1.390       .  A
C2471      H2478   1.084       .  S
C2472      C2473   1.403       .  A
C2472      H2479   1.084       .  S
C2473      C2474   1.408       .  A
C2474      H2480   1.084       .  S
C2481      C2482   1.406       .  A
C2481      C2486   1.409       .  A
C2482      C2483   1.394       .  A
C2482      H2491   1.083       .  S
C2483      C2484   1.399       .  A
C2483      H2492   1.084       .  S
C2484      C2490   1.403       .  A
C2484      C2485   1.414       .  A
C2485      C2487   1.405       .  A
C2485      C2486   1.411       .  A
C2486      H2493   1.084       .  S
C2487      C2488   1.403       .  A
C2487      H2494   1.084       .  S
C2488      C2489   1.405       .  A
C2488      H2495   1.083       .  S
C2489      C2490   1.404       .  A
C2490      H2496   1.085       .  S
C2497      C2498   1.405       .  A
C2497      C2502   1.404       .  A
C2498      C2499   1.405       .  A
C2498      H2507   1.083       .  S
C2499      C2500   1.407       .  A
C2499      H2508   1.083       .  S
C2500      C2506   1.413       .  A
C2500      C2501   1.415       .  A
C2501      C2503   1.399       .  A
C2501      C2502   1.400       .  A
C2502      H2509   1.084       .  S
C2503      C2504   1.392       .  A
C2503      H2510   1.083       .  S
C2504      C2505   1.404       .  A
C2504      H2511   1.084       .  S
C2505      C2506   1.409       .  A
C2506      H2512   1.083       .  S
C2513      C2514   1.405       .  A
C2513      C2518   1.407       .  A
C2514      C2515   1.392       .  A
C2514      H2523   1.083       .  S
C2515      C2516   1.399       .  A
C2515      H2524   1.085       .  S
C2516      C2522   1.399       .  A
C2516      C2517   1.414       .  A
C2517      C2519   1.405       .  A
C2517      C2518   1.408       .  A
C2518      H2525   1.085       .  S
C2519      C2520   1.402       .  A
C2519      H2526   1.084       .  S
C2520      C2521   1.405       .  A
C2520      H2527   1.083       .  S
C2521      C2522   1.403       .  A
C2522      H2528   1.085       .  S
C2529      C2530   1.405       .  A
C2529      C2534   1.403       .  A
C2530      C2531   1.401       .  A
C2530      H2539   1.083       .  S
C2531      C2532   1.404       .  A
C2531      H2540   1.084       .  S
C2532      C2538   1.406       .  A
C2532      C2533   1.414       .  A
C2533      C2535   1.399       .  A
C2533      C2534   1.397       .  A
C2534      H2541   1.085       .  S
C2535      C2536   1.392       .  A
C2535      H2542   1.085       .  S
C2536      C2537   1.403       .  A
C2536      H2543   1.083       .  S
C2537      C2538   1.405       .  A
C2538      H2544   1.085       .  S
C2545      C2546   1.405       .  A
C2545      C2550   1.402       .  A
C2546      C2547   1.405       .  A
C2546      H2555   1.082       .  S
C2547      C2548   1.407       .  A
C2547      H2556   1.085       .  S
C2548      C2554   1.410       .  A
C2548      C2549   1.414       .  A
C2549      C2551   1.397       .  A
C2549      C2550   1.396       .  A
C2550      H2557   1.086       .  S
C2551      C2552   1.390       .  A
C2551      H2558   1.085       .  S
C2552      C2553   1.405       .  A
C2552      H2559   1.083       .  S
C2553      C2554   1.409       .  A
C2554      H2560   1.085       .  S
C2561      C2562   1.406       .  A
C2561      C2566   1.408       .  A
C2562      C2563   1.393       .  A
C2562      H2571   1.083       .  S
C2563      C2564   1.399       .  A
C2563      H2572   1.085       .  S
C2564      C2570   1.401       .  A
C2564      C2565   1.414       .  A
C2565      C2567   1.405       .  A
C2565      C2566   1.409       .  A
C2566      H2573   1.085       .  S
C2567      C2568   1.402       .  A
C2567      H2574   1.084       .  S
C2568      C2569   1.405       .  A
C2568      H2575   1.083       .  S
C2569      C2570   1.404       .  A
C2570      H2576   1.085       .  S
C2577      C2578   1.404       .  A
C2577      C2582   1.409       .  A
C2578      C2579   1.392       .  A
C2578      H2587   1.083       .  S
C2579      C2580   1.398       .  A
C2579      H2588   1.084       .  S
C2580      C2586   1.400       .  A
C2580      C2581   1.414       .  A
C2581      C2583   1.406       .  A
C2581      C2582   1.412       .  A
C2582      H2589   1.084       .  S
C2583      C2584   1.404       .  A
C2583      H2590   1.083       .  S
C2584      C2585   1.406       .  A
C2584      H2591   1.083       .  S
C2585      C2586   1.403       .  A
C2586      H2592   1.085       .  S
C2593      C2594   1.406       .  A
C2593      C2598   1.409       .  A
C2594      C2595   1.390       .  A
C2594      H2603   1.083       .  S
C2595      C2596   1.397       .  A
C2595      H2604   1.085       .  S
C2596      C2602   1.398       .  A
C2596      C2597   1.414       .  A
C2597      C2599   1.406       .  A
C2597      C2598   1.412       .  A
C2598      H2605   1.084       .  S
C2599      C2600   1.405       .  A
C2599      H2606   1.084       .  S
C2600      C2601   1.405       .  A
C2600      H2607   1.083       .  S
C2601      C2602   1.402       .  A
C2602      H2608   1.086       .  S
C2609      C2610   1.404       .  A
C2609      C2614   1.408       .  A
C2610      C2611   1.389       .  A
C2610      H2619   1.083       .  S
C2611      C2612   1.397       .  A
C2611      H2620   1.084       .  S
C2612      C2618   1.397       .  A
C2612      C2613   1.414       .  A
C2613      C2615   1.406       .  A
C2613      C2614   1.410       .  A
C2614      H2621   1.084       .  S
C2615      C2616   1.404       .  A
C2615      H2622   1.083       .  S
C2616      C2617   1.406       .  A
C2616      H2623   1.083       .  S
C2617      C2618   1.402       .  A
C2618      H2624   1.084       .  S
C2625      C2626   1.406       .  A
C2625      C2630   1.408       .  A
C2626      C2627   1.393       .  A
C2626      H2635   1.083       .  S
C2627      C2628   1.399       .  A
C2627      H2636   1.084       .  S
C2628      C2634   1.403       .  A
C2628      C2629   1.415       .  A
C2629      C2631   1.404       .  A
C2629      C2630   1.411       .  A
C2630      H2637   1.085       .  S
C2631      C2632   1.402       .  A
C2631      H2638   1.084       .  S
C2632      C2633   1.405       .  A
C2632      H2639   1.083       .  S
C2633      C2634   1.405       .  A
C2634      H2640   1.085       .  S
C2641      C2642   1.405       .  A
C2641      C2646   1.402       .  A
C2642      C2643   1.403       .  A
C2642      H2651   1.083       .  S
C2643      C2644   1.406       .  A
C2643      H2652   1.085       .  S
C2644      C2650   1.409       .  A
C2644      C2645   1.414       .  A
C2645      C2647   1.398       .  A
C2645      C2646   1.397       .  A
C2646      H2653   1.086       .  S
C2647      C2648   1.391       .  A
C2647      H2654   1.085       .  S
C2648      C2649   1.405       .  A
C2648      H2655   1.083       .  S
C2649      C2650   1.408       .  A
C2650      H2656   1.085       .  S
C2657      C2658   1.407       .  A
C2657      C2662   1.408       .  A
C2658      C2659   1.393       .  A
C2658      H2667   1.083       .  S
C2659      C2660   1.399       .  A
C2659      H2668   1.084       .  S
C2660      C2666   1.401       .  A
C2660      C2661   1.414       .  A
C2661      C2663   1.406       .  A
C2661      C2662   1.410       .  A
C2662      H2669   1.084       .  S
C2663      C2664   1.403       .  A
C2663      H2670   1.084       .  S
C2664      C2665   1.405       .  A
C2664      H2671   1.083       .  S
C2665      C2666   1.405       .  A
C2666      H2672   1.085       .  S
C2673      C2674   1.404       .  A
C2673      C2678   1.411       .  A
C2674      C2675   1.390       .  A
C2674      H2683   1.083       .  S
C2675      C2676   1.397       .  A
C2675      H2684   1.085       .  S
C2676      C2682   1.400       .  A
C2676      C2677   1.414       .  A
C2677      C2679   1.408       .  A
C2677      C2678   1.416       .  A
C2678      H2685   1.085       .  S
C2679      C2680   1.407       .  A
C2679      H2686   1.084       .  S
C2680      C2681   1.406       .  A
C2680      H2687   1.083       .  S
C2681      C2682   1.404       .  A
C2682      H2688   1.086       .  S
C2689      C2690   1.405       .  A
C2689      C2694   1.406       .  A
C2690      C2691   1.393       .  A
C2690      H2699   1.083       .  S
C2691      C2692   1.399       .  A
C2691      H2700   1.084       .  S
C2692      C2698   1.398       .  A
C2692      C2693   1.414       .  A
C2693      C2695   1.405       .  A
C2693      C2694   1.406       .  A
C2694      H2701   1.084       .  S
C2695      C2696   1.401       .  A
C2695      H2702   1.084       .  S
C2696      C2697   1.403       .  A
C2696      H2703   1.083       .  S
C2697      C2698   1.404       .  A
C2698      H2704   1.085       .  S
C2705      C2706   1.406       .  A
C2705      C2710   1.401       .  A
C2706      C2707   1.408       .  A
C2706      H2715   1.083       .  S
C2707      C2708   1.409       .  A
C2707      H2716   1.084       .  S
C2708      C2714   1.414       .  A
C2708      C2709   1.414       .  A
C2709      C2711   1.395       .  A
C2709      C2710   1.393       .  A
C2710      H2717   1.086       .  S
C2711      C2712   1.386       .  A
C2711      H2718   1.085       .  S
C2712      C2713   1.404       .  A
C2712      H2719   1.083       .  S
C2713      C2714   1.411       .  A
C2714      H2720   1.085       .  S
C2721      C2722   1.405       .  A
C2721      C2726   1.403       .  A
C2722      C2723   1.402       .  A
C2722      H2731   1.083       .  S
C2723      C2724   1.404       .  A
C2723      H2732   1.084       .  S
C2724      C2730   1.408       .  A
C2724      C2725   1.414       .  A
C2725      C2727   1.398       .  A
C2725      C2726   1.398       .  A
C2726      H2733   1.085       .  S
C2727      C2728   1.391       .  A
C2727      H2734   1.085       .  S
C2728      C2729   1.406       .  A
C2728      H2735   1.083       .  S
C2729      C2730   1.407       .  A
C2730      H2736   1.085       .  S
C2737      C2738   1.405       .  A
C2737      C2742   1.403       .  A
C2738      C2739   1.403       .  A
C2738      H2747   1.083       .  S
C2739      C2740   1.405       .  A
C2739      H2748   1.084       .  S
C2740      C2746   1.407       .  A
C2740      C2741   1.414       .  A
C2741      C2743   1.398       .  A
C2741      C2742   1.396       .  A
C2742      H2749   1.085       .  S
C2743      C2744   1.390       .  A
C2743      H2750   1.085       .  S
C2744      C2745   1.405       .  A
C2744      H2751   1.083       .  S
C2745      C2746   1.407       .  A
C2746      H2752   1.085       .  S
C2753      C2754   1.407       .  A
C2753      C2758   1.405       .  A
C2754      C2755   1.407       .  A
C2754      H2763   1.083       .  S
C2755      C2756   1.407       .  A
C2755      H2764   1.084       .  S
C2756      C2762   1.414       .  A
C2756      C2757   1.414       .  A
C2757      C2759   1.399       .  A
C2757      C2758   1.401       .  A
C2758      H2765   1.085       .  S
C2759      C2760   1.392       .  A
C2759      H2766   1.085       .  S
C2760      C2761   1.404       .  A
C2760      H2767   1.083       .  S
C2761      C2762   1.410       .  A
C2762      H2768   1.085       .  S
C2769      C2770   1.404       .  A
C2769      C2774   1.406       .  A
C2770      C2771   1.399       .  A
C2770      H2779   1.083       .  S
C2771      C2772   1.403       .  A
C2771      H2780   1.083       .  S
C2772      C2778   1.407       .  A
C2772      C2773   1.414       .  A
C2773      C2775   1.401       .  A
C2773      C2774   1.405       .  A
C2774      H2781   1.084       .  S
C2775      C2776   1.397       .  A
C2775      H2782   1.084       .  S
C2776      C2777   1.407       .  A
C2776      H2783   1.083       .  S
C2777      C2778   1.406       .  A
C2778      H2784   1.084       .  S
C2785      C2786   1.406       .  A
C2785      C2790   1.408       .  A
C2786      C2787   1.386       .  A
C2786      H2795   1.083       .  S
C2787      C2788   1.395       .  A
C2787      H2796   1.084       .  S
C2788      C2794   1.394       .  A
C2788      C2789   1.415       .  A
C2789      C2791   1.407       .  A
C2789      C2790   1.410       .  A
C2790      H2797   1.084       .  S
C2791      C2792   1.405       .  A
C2791      H2798   1.084       .  S
C2792      C2793   1.404       .  A
C2792      H2799   1.083       .  S
C2793      C2794   1.400       .  A
C2794      H2800   1.086       .  S
C2801      C2802   1.407       .  A
C2801      C2806   1.399       .  A
C2802      C2803   1.409       .  A
C2802      H2811   1.083       .  S
C2803      C2804   1.409       .  A
C2803      H2812   1.084       .  S
C2804      C2810   1.415       .  A
C2804      C2805   1.414       .  A
C2805      C2807   1.394       .  A
C2805      C2806   1.392       .  A
C2806      H2813   1.085       .  S
C2807      C2808   1.384       .  A
C2807      H2814   1.085       .  S
C2808      C2809   1.404       .  A
C2808      H2815   1.083       .  S
C2809      C2810   1.412       .  A
C2810      H2816   1.085       .  S
C2817      C2818   1.405       .  A
C2817      C2822   1.406       .  A
C2818      C2819   1.403       .  A
C2818      H2827   1.083       .  S
C2819      C2820   1.405       .  A
C2819      H2828   1.084       .  S
C2820      C2826   1.411       .  A
C2820      C2821   1.414       .  A
C2821      C2823   1.400       .  A
C2821      C2822   1.404       .  A
C2822      H2829   1.085       .  S
C2823      C2824   1.396       .  A
C2823      H2830   1.084       .  S
C2824      C2825   1.407       .  A
C2824      H2831   1.083       .  S
C2825      C2826   1.409       .  A
C2826      H2832   1.084   1_565  S
C2833      C2834   1.404       .  A
C2833      C2838   1.407       .  A
C2834      C2835   1.393       .  A
C2834      H2843   1.083       .  S
C2835      C2836   1.399       .  A
C2835      H2844   1.084       .  S
C2836      C2842   1.402       .  A
C2836      C2837   1.415       .  A
C2837      C2839   1.404       .  A
C2837      C2838   1.410       .  A
C2838      H2845   1.084       .  S
C2839      C2840   1.402       .  A
C2839      H2846   1.083       .  S
C2840      C2841   1.406       .  A
C2840      H2847   1.083       .  S
C2841      C2842   1.404       .  A
C2842      H2848   1.084       .  S
C2849      C2850   1.407       .  A
C2849      C2854   1.402       .  A
C2850      C2851   1.404       .  A
C2850      H2859   1.083       .  S
C2851      C2852   1.405       .  A
C2851      H2860   1.084       .  S
C2852      C2858   1.413       .  A
C2852      C2853   1.415       .  A
C2853      C2855   1.397       .  A
C2853      C2854   1.401       .  A
C2854      H2861   1.085       .  S
C2855      C2856   1.390       .  A
C2855      H2862   1.084       .  S
C2856      C2857   1.404       .  A
C2856      H2863   1.083       .  S
C2857      C2858   1.409       .  A
C2858      H2864   1.084       .  S
C2865      C2866   1.406       .  A
C2865      C2870   1.404       .  A
C2866      C2867   1.404       .  A
C2866      H2875   1.083       .  S
C2867      C2868   1.405       .  A
C2867      H2876   1.084       .  S
C2868      C2874   1.410       .  A
C2868      C2869   1.414       .  A
C2869      C2871   1.399       .  A
C2869      C2870   1.400       .  A
C2870      H2877   1.085       .  S
C2871      C2872   1.392       .  A
C2871      H2878   1.084       .  S
C2872      C2873   1.406       .  A
C2872      H2879   1.083       .  S
C2873      C2874   1.408       .  A
C2874      H2880   1.084       .  S
C2881      C2882   1.405       .  A
C2881      C2886   1.403       .  A
C2882      C2883   1.403       .  A
C2882      H2891   1.083       .  S
C2883      C2884   1.405       .  A
C2883      H2892   1.083       .  S
C2884      C2890   1.410       .  A
C2884      C2885   1.415       .  A
C2885      C2887   1.399       .  A
C2885      C2886   1.400       .  A
C2886      H2893   1.084       .  S
C2887      C2888   1.392       .  A
C2887      H2894   1.083       .  S
C2888      C2889   1.405       .  A
C2888      H2895   1.084       .  S
C2889      C2890   1.407       .  A
C2890      H2896   1.084       .  S
C2897      C2898   1.406       .  A
C2897      C2902   1.408       .  A
C2898      C2899   1.393       .  A
C2898      H2907   1.083       .  S
C2899      C2900   1.399       .  A
C2899      H2908   1.084       .  S
C2900      C2906   1.401       .  A
C2900      C2901   1.414       .  A
C2901      C2903   1.405       .  A
C2901      C2902   1.409       .  A
C2902      H2909   1.084       .  S
C2903      C2904   1.402       .  A
C2903      H2910   1.083       .  S
C2904      C2905   1.404       .  A
C2904      H2911   1.083       .  S
C2905      C2906   1.403       .  A
C2906      H2912   1.084       .  S
C2913      C2914   1.404       .  A
C2913      C2918   1.408       .  A
C2914      C2915   1.389       .  A
C2914      H2923   1.084       .  S
C2915      C2916   1.398       .  A
C2915      H2924   1.084       .  S
C2916      C2922   1.396       .  A
C2916      C2917   1.414       .  A
C2917      C2919   1.406       .  A
C2917      C2918   1.410       .  A
C2918      H2925   1.085       .  S
C2919      C2920   1.405       .  A
C2919      H2926   1.084       .  S
C2920      C2921   1.405       .  A
C2920      H2927   1.082       .  S
C2921      C2922   1.403       .  A
C2922      H2928   1.085       .  S
C2929      C2930   1.406       .  A
C2929      C2934   1.404       .  A
C2930      C2931   1.403       .  A
C2930      H2939   1.083       .  S
C2931      C2932   1.405       .  A
C2931      H2940   1.083       .  S
C2932      C2938   1.411       .  A
C2932      C2933   1.415       .  A
C2933      C2935   1.398       .  A
C2933      C2934   1.401       .  A
C2934      H2941   1.084       .  S
C2935      C2936   1.392       .  A
C2935      H2942   1.083       .  S
C2936      C2937   1.406       .  A
C2936      H2943   1.083       .  S
C2937      C2938   1.408       .  A
C2938      H2944   1.083       .  S
C2945      C2946   1.405       .  A
C2945      C2950   1.408       .  A
C2946      C2947   1.395       .  A
C2946      H2955   1.084       .  S
C2947      C2948   1.401       .  A
C2947      H2956   1.084       .  S
C2948      C2954   1.404       .  A
C2948      C2949   1.414       .  A
C2949      C2951   1.406       .  A
C2949      C2950   1.412       .  A
C2950      H2957   1.085       .  S
C2951      C2952   1.404       .  A
C2951      H2958   1.084       .  S
C2952      C2953   1.405       .  A
C2952      H2959   1.082       .  S
C2953      C2954   1.407       .  A
C2954      H2960   1.085       .  S
C2961      C2962   1.403       .  A
C2961      C2966   1.409       .  A
C2962      C2963   1.390       .  A
C2962      H2971   1.084       .  S
C2963      C2964   1.398       .  A
C2963      H2972   1.083       .  S
C2964      C2970   1.399       .  A
C2964      C2965   1.414       .  A
C2965      C2967   1.406       .  A
C2965      C2966   1.412       .  A
C2966      H2973   1.084       .  S
C2967      C2968   1.405       .  A
C2967      H2974   1.083       .  S
C2968      C2969   1.406       .  A
C2968      H2975   1.083       .  S
C2969      C2970   1.403       .  A
C2970      H2976   1.084       .  S
C2977      C2978   1.404       .  A
C2977      C2982   1.406       .  A
C2978      C2979   1.394       .  A
C2978      H2987   1.083       .  S
C2979      C2980   1.400       .  A
C2979      H2988   1.084       .  S
C2980      C2986   1.401       .  A
C2980      C2981   1.414       .  A
C2981      C2983   1.404       .  A
C2981      C2982   1.408       .  A
C2982      H2989   1.084       .  S
C2983      C2984   1.402       .  A
C2983      H2990   1.084       .  S
C2984      C2985   1.405       .  A
C2984      H2991   1.083       .  S
C2985      C2986   1.405       .  A
C2986      H2992   1.085       .  S
C2993      C2994   1.405       .  A
C2993      C2998   1.407       .  A
C2994      C2995   1.397       .  A
C2994      H3003   1.083       .  S
C2995      C2996   1.402       .  A
C2995      H3004   1.083       .  S
C2996      C3002   1.405       .  A
C2996      C2997   1.414       .  A
C2997      C2999   1.404       .  A
C2997      C2998   1.409       .  A
C2998      H3005   1.083       .  S
C2999      C3000   1.401       .  A
C2999      H3006   1.083       .  S
C3000      C3001   1.406       .  A
C3000      H3007   1.083       .  S
C3001      C3002   1.407       .  A
C3002      H3008   1.084       .  S
C3009      C3010   1.406       .  A
C3009      C3014   1.404       .  A
C3010      C3011   1.405       .  A
C3010      H3019   1.083       .  S
C3011      C3012   1.407       .  A
C3011      H3020   1.084       .  S
C3012      C3018   1.410       .  A
C3012      C3013   1.414       .  A
C3013      C3015   1.399       .  A
C3013      C3014   1.399       .  A
C3014      H3021   1.085       .  S
C3015      C3016   1.392       .  A
C3015      H3022   1.084       .  S
C3016      C3017   1.403       .  A
C3016      H3023   1.083       .  S
C3017      C3018   1.409       .  A
C3018      H3024   1.085       .  S
C3025      C3026   1.403       .  A
C3025      C3030   1.409       .  A
C3026      C3027   1.394       .  A
C3026      H3035   1.083       .  S
C3027      C3028   1.400       .  A
C3027      H3036   1.084       .  S
C3028      C3034   1.402       .  A
C3028      C3029   1.414       .  A
C3029      C3031   1.406       .  A
C3029      C3030   1.412       .  A
C3030      H3037   1.085       .  S
C3031      C3032   1.404       .  A
C3031      H3038   1.084       .  S
C3032      C3033   1.406       .  A
C3032      H3039   1.082       .  S
C3033      C3034   1.405       .  A
C3034      H3040   1.085       .  S
C3041      C3042   1.403       .  A
C3041      C3046   1.407       .  A
C3042      C3043   1.392       .  A
C3042      H3051   1.084       .  S
C3043      C3044   1.399       .  A
C3043      H3052   1.084       .  S
C3044      C3050   1.399       .  A
C3044      C3045   1.414       .  A
C3045      C3047   1.406       .  A
C3045      C3046   1.411       .  A
C3046      H3053   1.084       .  S
C3047      C3048   1.405       .  A
C3047      H3054   1.084       .  S
C3048      C3049   1.406       .  A
C3048      H3055   1.083       .  S
C3049      C3050   1.404       .  A
C3050      H3056   1.084       .  S
C3057      C3058   1.405       .  A
C3057      C3062   1.409       .  A
C3058      C3059   1.394       .  A
C3058      H3067   1.083       .  S
C3059      C3060   1.400       .  A
C3059      H3068   1.083       .  S
C3060      C3066   1.402       .  A
C3060      C3061   1.414       .  A
C3061      C3063   1.406       .  A
C3061      C3062   1.411       .  A
C3062      H3069   1.084       .  S
C3063      C3064   1.404       .  A
C3063      H3070   1.083       .  S
C3064      C3065   1.406       .  A
C3064      H3071   1.083       .  S
C3065      C3066   1.405       .  A
C3066      H3072   1.084       .  S
C3073      C3074   1.406       .  A
C3073      C3078   1.404       .  A
C3074      C3075   1.407       .  A
C3074      H3083   1.083       .  S
C3075      C3076   1.408       .  A
C3075      H3084   1.084       .  S
C3076      C3082   1.414       .  A
C3076      C3077   1.413       .  A
C3077      C3079   1.397       .  A
C3077      C3078   1.398       .  A
C3078      H3085   1.085       .  S
C3079      C3080   1.390       .  A
C3079      H3086   1.084       .  S
C3080      C3081   1.406       .  A
C3080      H3087   1.083       .  S
C3081      C3082   1.411       .  A
C3082      H3088   1.084       .  S
C3089      C3090   1.406       .  A
C3089      C3094   1.403       .  A
C3090      C3091   1.403       .  A
C3090      H3099   1.083       .  S
C3091      C3092   1.405       .  A
C3091      H3100   1.084       .  S
C3092      C3098   1.412       .  A
C3092      C3093   1.415       .  A
C3093      C3095   1.398       .  A
C3093      C3094   1.401       .  A
C3094      H3101   1.085       .  S
C3095      C3096   1.391       .  A
C3095      H3102   1.084       .  S
C3096      C3097   1.406       .  A
C3096      H3103   1.083       .  S
C3097      C3098   1.408       .  A
C3098      H3104   1.084       .  S
C3105      C3106   1.405       .  A
C3105      C3110   1.403       .  A
C3106      C3107   1.407       .  A
C3106      H3115   1.083       .  S
C3107      C3108   1.408       .  A
C3107      H3116   1.084       .  S
C3108      C3114   1.412       .  A
C3108      C3109   1.413       .  A
C3109      C3111   1.397       .  A
C3109      C3110   1.395       .  A
C3110      H3117   1.085       .  S
C3111      C3112   1.389       .  A
C3111      H3118   1.084       .  S
C3112      C3113   1.404       .  A
C3112      H3119   1.083       .  S
C3113      C3114   1.410       .  A
C3114      H3120   1.084       .  S
C3121      C3122   1.404       .  A
C3121      C3126   1.406       .  A
C3122      C3123   1.393       .  A
C3122      H3131   1.083       .  S
C3123      C3124   1.400       .  A
C3123      H3132   1.085       .  S
C3124      C3130   1.399       .  A
C3124      C3125   1.414       .  A
C3125      C3127   1.405       .  A
C3125      C3126   1.407       .  A
C3126      H3133   1.085       .  S
C3127      C3128   1.402       .  A
C3127      H3134   1.085       .  S
C3128      C3129   1.405       .  A
C3128      H3135   1.082       .  S
C3129      C3130   1.405       .  A
C3130      H3136   1.085       .  S
C3137      C3138   1.407       .  A
C3137      C3142   1.408       .  A
C3138      C3139   1.395       .  A
C3138      H3147   1.083       .  S
C3139      C3140   1.399       .  A
C3139      H3148   1.084       .  S
C3140      C3146   1.404       .  A
C3140      C3141   1.415       .  A
C3141      C3143   1.404       .  A
C3141      C3142   1.410       .  A
C3142      H3149   1.084       .  S
C3143      C3144   1.401       .  A
C3143      H3150   1.084       .  S
C3144      C3145   1.405       .  A
C3144      H3151   1.083       .  S
C3145      C3146   1.406       .  A
C3146      H3152   1.085       .  S
C3153      C3154   1.404       .  A
C3153      C3158   1.404       .  A
C3154      C3155   1.401       .  A
C3154      H3163   1.083       .  S
C3155      C3156   1.404       .  A
C3155      H3164   1.084       .  S
C3156      C3162   1.407       .  A
C3156      C3157   1.414       .  A
C3157      C3159   1.399       .  A
C3157      C3158   1.399       .  A
C3158      H3165   1.086       .  S
C3159      C3160   1.393       .  A
C3159      H3166   1.085       .  S
C3160      C3161   1.406       .  A
C3160      H3167   1.083       .  S
C3161      C3162   1.406       .  A
C3162      H3168   1.085       .  S
C3169      C3170   1.403       .  A
C3169      C3174   1.408       .  A
C3170      C3171   1.392       .  A
C3170      H3179   1.083       .  S
C3171      C3172   1.399       .  A
C3171      H3180   1.084       .  S
C3172      C3178   1.399       .  A
C3172      C3173   1.414       .  A
C3173      C3175   1.406       .  A
C3173      C3174   1.409       .  A
C3174      H3181   1.084       .  S
C3175      C3176   1.403       .  A
C3175      H3182   1.084       .  S
C3176      C3177   1.406       .  A
C3176      H3183   1.083       .  S
C3177      C3178   1.403       .  A
C3178      H3184   1.084       .  S
C3185      C3186   1.405       .  A
C3185      C3190   1.403       .  A
C3186      C3187   1.403       .  A
C3186      H3195   1.083       .  S
C3187      C3188   1.405       .  A
C3187      H3196   1.084       .  S
C3188      C3194   1.410       .  A
C3188      C3189   1.415       .  A
C3189      C3191   1.399       .  A
C3189      C3190   1.399       .  A
C3190      H3197   1.085       .  S
C3191      C3192   1.391       .  A
C3191      H3198   1.084       .  S
C3192      C3193   1.402       .  A
C3192      H3199   1.084       .  S
C3193      C3194   1.406       .  A
C3194      H3200   1.085       .  S
C3201      C3202   1.405       .  A
C3201      C3206   1.409       .  A
C3202      C3203   1.395       .  A
C3202      H3211   1.083       .  S
C3203      C3204   1.400       .  A
C3203      H3212   1.084       .  S
C3204      C3210   1.405       .  A
C3204      C3205   1.414       .  A
C3205      C3207   1.406       .  A
C3205      C3206   1.414       .  A
C3206      H3213   1.084       .  S
C3207      C3208   1.404       .  A
C3207      H3214   1.084       .  S
C3208      C3209   1.407       .  A
C3208      H3215   1.083       .  S
C3209      C3210   1.406       .  A
C3210      H3216   1.085       .  S
C3217      C3218   1.407       .  A
C3217      C3222   1.402       .  A
C3218      C3219   1.408       .  A
C3218      H3227   1.082       .  S
C3219      C3220   1.408       .  A
C3219      H3228   1.084       .  S
C3220      C3226   1.416       .  A
C3220      C3221   1.414       .  A
C3221      C3223   1.395       .  A
C3221      C3222   1.398       .  A
C3222      H3229   1.085       .  S
C3223      C3224   1.387       .  A
C3223      H3230   1.084       .  S
C3224      C3225   1.406       .  A
C3224      H3231   1.083       .  S
C3225      C3226   1.412       .  A
C3226      H3232   1.084       .  S
C3233      C3234   1.406       .  A
C3233      C3238   1.403       .  A
C3234      C3235   1.406       .  A
C3234      H3243   1.083       .  S
C3235      C3236   1.408       .  A
C3235      H3244   1.084       .  S
C3236      C3242   1.413       .  A
C3236      C3237   1.414       .  A
C3237      C3239   1.398       .  A
C3237      C3238   1.397       .  A
C3238      H3245   1.085       .  S
C3239      C3240   1.390       .  A
C3239      H3246   1.084       .  S
C3240      C3241   1.404       .  A
C3240      H3247   1.083       .  S
C3241      C3242   1.410       .  A
C3242      H3248   1.084       .  S
C3249      C3250   1.406       .  A
C3249      C3254   1.402       .  A
C3250      C3251   1.405       .  A
C3250      H3259   1.083       .  S
C3251      C3252   1.407       .  A
C3251      H3260   1.084       .  S
C3252      C3258   1.410       .  A
C3252      C3253   1.414       .  A
C3253      C3255   1.397       .  A
C3253      C3254   1.395       .  A
C3254      H3261   1.085       .  S
C3255      C3256   1.388       .  A
C3255      H3262   1.085       .  S
C3256      C3257   1.404       .  A
C3256      H3263   1.084       .  S
C3257      C3258   1.408       .  A
C3258      H3264   1.085       .  S
C3265      C3266   1.405       .  A
C3265      C3270   1.409       .  A
C3266      C3267   1.391       .  A
C3266      H3275   1.083       .  S
C3267      C3268   1.398       .  A
C3267      H3276   1.085       .  S
C3268      C3274   1.399       .  A
C3268      C3269   1.414       .  A
C3269      C3271   1.405       .  A
C3269      C3270   1.409       .  A
C3270      H3277   1.085       .  S
C3271      C3272   1.403       .  A
C3271      H3278   1.084       .  S
C3272      C3273   1.406       .  A
C3272      H3279   1.083       .  S
C3273      C3274   1.402       .  A
C3274      H3280   1.085       .  S
C3281      C3282   1.404       .  A
C3281      C3286   1.408       .  A
C3282      C3283   1.388       .  A
C3282      H3291   1.083       .  S
C3283      C3284   1.396       .  A
C3283      H3292   1.084       .  S
C3284      C3290   1.397       .  A
C3284      C3285   1.415       .  A
C3285      C3287   1.405       .  A
C3285      C3286   1.411       .  A
C3286      H3293   1.085       .  S
C3287      C3288   1.403       .  A
C3287      H3294   1.084       .  S
C3288      C3289   1.406       .  A
C3288      H3295   1.083       .  S
C3289      C3290   1.400       .  A
C3290      H3296   1.085       .  S
C3297      C3298   1.402       .  A
C3297      C3302   1.403       .  A
C3298      C3299   1.388       .  A
C3298      H3307   1.084       .  S
C3299      C3300   1.398       .  A
C3299      H3308   1.084       .  S
C3300      C3306   1.393       .  A
C3300      C3301   1.415       .  A
C3301      C3303   1.404       .  A
C3301      C3302   1.404       .  A
C3302      H3309   1.085       .  S
C3303      C3304   1.400       .  A
C3303      H3310   1.084       .  S
C3304      C3305   1.404       .  A
C3304      H3311   1.083       .  S
C3305      C3306   1.401       .  A
C3306      H3312   1.085       .  S
C3313      C3314   1.404       .  A
C3313      C3318   1.409       .  A
C3314      C3315   1.389       .  A
C3314      H3323   1.083       .  S
C3315      C3316   1.397       .  A
C3315      H3324   1.084       .  S
C3316      C3322   1.396       .  A
C3316      C3317   1.414       .  A
C3317      C3319   1.406       .  A
C3317      C3318   1.411       .  A
C3318      H3325   1.084       .  S
C3319      C3320   1.404       .  A
C3319      H3326   1.084       .  S
C3320      C3321   1.406       .  A
C3320      H3327   1.083   1_565  S
C3321      C3322   1.401       .  A
C3322      H3328   1.085       .  S
C3329      C3330   1.405       .  A
C3329      C3334   1.404       .  A
C3330      C3331   1.402       .  A
C3330      H3339   1.083       .  S
C3331      C3332   1.405       .  A
C3331      H3340   1.084       .  S
C3332      C3338   1.408       .  A
C3332      C3333   1.414       .  A
C3333      C3335   1.400       .  A
C3333      C3334   1.401       .  A
C3334      H3341   1.085       .  S
C3335      C3336   1.394       .  A
C3335      H3342   1.084       .  S
C3336      C3337   1.406       .  A
C3336      H3343   1.083       .  S
C3337      C3338   1.407       .  A
C3338      H3344   1.084       .  S
C3345      C3346   1.406       .  A
C3345      C3350   1.405       .  A
C3346      C3347   1.406       .  A
C3346      H3355   1.083       .  S
C3347      C3348   1.407       .  A
C3347      H3356   1.083       .  S
C3348      C3354   1.413       .  A
C3348      C3349   1.414       .  A
C3349      C3351   1.398       .  A
C3349      C3350   1.400       .  A
C3350      H3357   1.084       .  S
C3351      C3352   1.391       .  A
C3351      H3358   1.083       .  S
C3352      C3353   1.405       .  A
C3352      H3359   1.084       .  S
C3353      C3354   1.409       .  A
C3354      H3360   1.083       .  S
C3361      C3362   1.405       .  A
C3361      C3366   1.403       .  A
C3362      C3363   1.402       .  A
C3362      H3371   1.083       .  S
C3363      C3364   1.405       .  A
C3363      H3372   1.084       .  S
C3364      C3370   1.407       .  A
C3364      C3365   1.414       .  A
C3365      C3367   1.400       .  A
C3365      C3366   1.398       .  A
C3366      H3373   1.085       .  S
C3367      C3368   1.392       .  A
C3367      H3374   1.084       .  S
C3368      C3369   1.403       .  A
C3368      H3375   1.083       .  S
C3369      C3370   1.407       .  A
C3370      H3376   1.084       .  S
C3377      C3378   1.406       .  A
C3377      C3382   1.404       .  A
C3378      C3379   1.397       .  A
C3378      H3387   1.083       .  S
C3379      C3380   1.402       .  A
C3379      H3388   1.085       .  S
C3380      C3386   1.405       .  A
C3380      C3381   1.415       .  A
C3381      C3383   1.402       .  A
C3381      C3382   1.405       .  A
C3382      H3389   1.085       .  S
C3383      C3384   1.398       .  A
C3383      H3390   1.084       .  S
C3384      C3385   1.404       .  A
C3384      H3391   1.082       .  S
C3385      C3386   1.407       .  A
C3386      H3392   1.085       .  S
C3393      C3394   1.405       .  A
C3393      C3398   1.402       .  A
C3394      C3395   1.405       .  A
C3394      H3403   1.083       .  S
C3395      C3396   1.407       .  A
C3395      H3404   1.085       .  S
C3396      C3402   1.409       .  A
C3396      C3397   1.414       .  A
C3397      C3399   1.398       .  A
C3397      C3398   1.394       .  A
C3398      H3405   1.086       .  S
C3399      C3400   1.389       .  A
C3399      H3406   1.085       .  S
C3400      C3401   1.401       .  A
C3400      H3407   1.084       .  S
C3401      C3402   1.407       .  A
C3402      H3408   1.085       .  S
C3409      C3410   1.404       .  A
C3409      C3414   1.404       .  A
C3410      C3411   1.401       .  A
C3410      H3419   1.083       .  S
C3411      C3412   1.404       .  A
C3411      H3420   1.084       .  S
C3412      C3418   1.408       .  A
C3412      C3413   1.415       .  A
C3413      C3415   1.399       .  A
C3413      C3414   1.399       .  A
C3414      H3421   1.085       .  S
C3415      C3416   1.392       .  A
C3415      H3422   1.085       .  S
C3416      C3417   1.405       .  A
C3416      H3423   1.083       .  S
C3417      C3418   1.406       .  A
C3418      H3424   1.084       .  S
C3425      C3426   1.405       .  A
C3425      C3430   1.408       .  A
C3426      C3427   1.394       .  A
C3426      H3435   1.083       .  S
C3427      C3428   1.400       .  A
C3427      H3436   1.084       .  S
C3428      C3434   1.401       .  A
C3428      C3429   1.414       .  A
C3429      C3431   1.405       .  A
C3429      C3430   1.408       .  A
C3430      H3437   1.084       .  S
C3431      C3432   1.402       .  A
C3431      H3438   1.084       .  S
C3432      C3433   1.404       .  A
C3432      H3439   1.083       .  S
C3433      C3434   1.404       .  A
C3434      H3440   1.085       .  S
C3441      C3442   1.405       .  A
C3441      C3446   1.403       .  A
C3442      C3443   1.404       .  A
C3442      H3451   1.083       .  S
C3443      C3444   1.406       .  A
C3443      H3452   1.083       .  S
C3444      C3450   1.410       .  A
C3444      C3445   1.414       .  A
C3445      C3447   1.398       .  A
C3445      C3446   1.397       .  A
C3446      H3453   1.084       .  S
C3447      C3448   1.390       .  A
C3447      H3454   1.083       .  S
C3448      C3449   1.403       .  A
C3448      H3455   1.084       .  S
C3449      C3450   1.407       .  A
C3450      H3456   1.084       .  S
C3457      C3458   1.405       .  A
C3457      C3462   1.407       .  A
C3458      C3459   1.393       .  A
C3458      H3467   1.083       .  S
C3459      C3460   1.399       .  A
C3459      H3468   1.083       .  S
C3460      C3466   1.399       .  A
C3460      C3461   1.414       .  A
C3461      C3463   1.405       .  A
C3461      C3462   1.406       .  A
C3462      H3469   1.084       .  S
C3463      C3464   1.401       .  A
C3463      H3470   1.083       .  S
C3464      C3465   1.404       .  A
C3464      H3471   1.083       .  S
C3465      C3466   1.402       .  A
C3466      H3472   1.084       .  S
C3473      C3474   1.405       .  A
C3473      C3478   1.409       .  A
C3474      C3475   1.392       .  A
C3474      H3483   1.084       .  S
C3475      C3476   1.399       .  A
C3475      H3484   1.083       .  S
C3476      C3482   1.400       .  A
C3476      C3477   1.414       .  A
C3477      C3479   1.406       .  A
C3477      C3478   1.410       .  A
C3478      H3485   1.084       .  S
C3479      C3480   1.404       .  A
C3479      H3486   1.084       .  S
C3480      C3481   1.405       .  A
C3480      H3487   1.083       .  S
C3481      C3482   1.402       .  A
C3482      H3488   1.084       .  S
C3489      C3490   1.406       .  A
C3489      C3494   1.408       .  A
C3490      C3491   1.390       .  A
C3490      H3499   1.083       .  S
C3491      C3492   1.397       .  A
C3491      H3500   1.084       .  S
C3492      C3498   1.397       .  A
C3492      C3493   1.414       .  A
C3493      C3495   1.406       .  A
C3493      C3494   1.409       .  A
C3494      H3501   1.084       .  S
C3495      C3496   1.404       .  A
C3495      H3502   1.084       .  S
C3496      C3497   1.404       .  A
C3496      H3503   1.083       .  S
C3497      C3498   1.402       .  A
C3498      H3504   1.085       .  S
C3505      C3506   1.406       .  A
C3505      C3510   1.410       .  A
C3506      C3507   1.392       .  A
C3506      H3515   1.083       .  S
C3507      C3508   1.398       .  A
C3507      H3516   1.084       .  S
C3508      C3514   1.401       .  A
C3508      C3509   1.414       .  A
C3509      C3511   1.407       .  A
C3509      C3510   1.413       .  A
C3510      H3517   1.084       .  S
C3511      C3512   1.406       .  A
C3511      H3518   1.084       .  S
C3512      C3513   1.406       .  A
C3512      H3519   1.083       .  S
C3513      C3514   1.404       .  A
C3514      H3520   1.085       .  S
C3521      C3522   1.404       .  A
C3521      C3526   1.413       .  A
C3522      C3523   1.387       .  A
C3522      H3531   1.083       .  S
C3523      C3524   1.396       .  A
C3523      H3532   1.084       .  S
C3524      C3530   1.393       .  A
C3524      C3525   1.413       .  A
C3525      C3527   1.410       .  A
C3525      C3526   1.415       .  A
C3526      H3533   1.084       .  S
C3527      C3528   1.410       .  A
C3527      H3534   1.084       .  S
C3528      C3529   1.406       .  A
C3528      H3535   1.083       .  S
C3529      C3530   1.401       .  A
C3530      H3536   1.085       .  S
C3537      C3538   1.405       .  A
C3537      C3542   1.404       .  A
C3538      C3539   1.405       .  A
C3538      H3547   1.082       .  S
C3539      C3540   1.406       .  A
C3539      H3548   1.083       .  S
C3540      C3546   1.413       .  A
C3540      C3541   1.415       .  A
C3541      C3543   1.398       .  A
C3541      C3542   1.400       .  A
C3542      H3549   1.084       .  S
C3543      C3544   1.391       .  A
C3543      H3550   1.084       .  S
C3544      C3545   1.405       .  A
C3544      H3551   1.084       .  S
C3545      C3546   1.409       .  A
C3546      H3552   1.084       .  S
C3553      C3554   1.404       .  A
C3553      C3558   1.407       .  A
C3554      C3555   1.400       .  A
C3554      H3563   1.082   1_655  S
C3555      C3556   1.403       .  A
C3555      H3564   1.084       .  S
C3556      C3562   1.407       .  A
C3556      C3557   1.414       .  A
C3557      C3559   1.401       .  A
C3557      C3558   1.403       .  A
C3558      H3565   1.085       .  S
C3559      C3560   1.396       .  A
C3559      H3566   1.084       .  S
C3560      C3561   1.405       .  A
C3560      H3567   1.083       .  S
C3561      C3562   1.406       .  A
C3562      H3568   1.085       .  S
C3569      C3570   1.406       .  A
C3569      C3574   1.403       .  A
C3570      C3571   1.401       .  A
C3570      H3579   1.083       .  S
C3571      C3572   1.404       .  A
C3571      H3580   1.085       .  S
C3572      C3578   1.408       .  A
C3572      C3573   1.415       .  A
C3573      C3575   1.400       .  A
C3573      C3574   1.401       .  A
C3574      H3581   1.085       .  S
C3575      C3576   1.394       .  A
C3575      H3582   1.085       .  S
C3576      C3577   1.404       .  A
C3576      H3583   1.083       .  S
C3577      C3578   1.406       .  A
C3578      H3584   1.085       .  S
C3585      C3586   1.407       .  A
C3585      C3590   1.407       .  A
C3586      C3587   1.395       .  A
C3586      H3595   1.083       .  S
C3587      C3588   1.400       .  A
C3587      H3596   1.084       .  S
C3588      C3594   1.404       .  A
C3588      C3589   1.415       .  A
C3589      C3591   1.404       .  A
C3589      C3590   1.411       .  A
C3590      H3597   1.085       .  S
C3591      C3592   1.402       .  A
C3591      H3598   1.084       .  S
C3592      C3593   1.405       .  A
C3592      H3599   1.082       .  S
C3593      C3594   1.406       .  A
C3594      H3600   1.085       .  S
C3601      C3602   1.405       .  A
C3601      C3606   1.404       .  A
C3602      C3603   1.404       .  A
C3602      H3611   1.083       .  S
C3603      C3604   1.406       .  A
C3603      H3612   1.084       .  S
C3604      C3610   1.412       .  A
C3604      C3605   1.415       .  A
C3605      C3607   1.399       .  A
C3605      C3606   1.403       .  A
C3606      H3613   1.086       .  S
C3607      C3608   1.394       .  A
C3607      H3614   1.085       .  S
C3608      C3609   1.405       .  A
C3608      H3615   1.083       .  S
C3609      C3610   1.410       .  A
C3610      H3616   1.085       .  S
C3617      C3618   1.406       .  A
C3617      C3622   1.402       .  A
C3618      C3619   1.407       .  A
C3618      H3627   1.083       .  S
C3619      C3620   1.408       .  A
C3619      H3628   1.084       .  S
C3620      C3626   1.413       .  A
C3620      C3621   1.414       .  A
C3621      C3623   1.397       .  A
C3621      C3622   1.394       .  A
C3622      H3629   1.085       .  S
C3623      C3624   1.388       .  A
C3623      H3630   1.084       .  S
C3624      C3625   1.403       .  A
C3624      H3631   1.083       .  S
C3625      C3626   1.410       .  A
C3626      H3632   1.084       .  S
C3633      C3634   1.406       .  A
C3633      C3638   1.406       .  A
C3634      C3635   1.404       .  A
C3634      H3643   1.083       .  S
C3635      C3636   1.406       .  A
C3635      H3644   1.084       .  S
C3636      C3642   1.411       .  A
C3636      C3637   1.414       .  A
C3637      C3639   1.401       .  A
C3637      C3638   1.402       .  A
C3638      H3645   1.085       .  S
C3639      C3640   1.395       .  A
C3639      H3646   1.084       .  S
C3640      C3641   1.404       .  A
C3640      H3647   1.083       .  S
C3641      C3642   1.409       .  A
C3642      H3648   1.085       .  S
C3649      C3650   1.406       .  A
C3649      C3654   1.410       .  A
C3650      C3651   1.393       .  A
C3650      H3659   1.083       .  S
C3651      C3652   1.398       .  A
C3651      H3660   1.084       .  S
C3652      C3658   1.402       .  A
C3652      C3653   1.414       .  A
C3653      C3655   1.406       .  A
C3653      C3654   1.413       .  A
C3654      H3661   1.085       .  S
C3655      C3656   1.405       .  A
C3655      H3662   1.084       .  S
C3656      C3657   1.407       .  A
C3656      H3663   1.083       .  S
C3657      C3658   1.404       .  A
C3658      H3664   1.085       .  S
C3665      C3666   1.406       .  A
C3665      C3670   1.404       .  A
C3666      C3667   1.407       .  A
C3666      H3675   1.083       .  S
C3667      C3668   1.407       .  A
C3667      H3676   1.084       .  S
C3668      C3674   1.413       .  A
C3668      C3669   1.414       .  A
C3669      C3671   1.399       .  A
C3669      C3670   1.400       .  A
C3670      H3677   1.084       .  S
C3671      C3672   1.392       .  A
C3671      H3678   1.084       .  S
C3672      C3673   1.405       .  A
C3672      H3679   1.083       .  S
C3673      C3674   1.410       .  A
C3674      H3680   1.084       .  S
C3681      C3682   1.406       .  A
C3681      C3686   1.406       .  A
C3682      C3683   1.403       .  A
C3682      H3691   1.083       .  S
C3683      C3684   1.405       .  A
C3683      H3692   1.083       .  S
C3684      C3690   1.410       .  A
C3684      C3685   1.414       .  A
C3685      C3687   1.400       .  A
C3685      C3686   1.403       .  A
C3686      H3693   1.084       .  S
C3687      C3688   1.394       .  A
C3687      H3694   1.083       .  S
C3688      C3689   1.405       .  A
C3688      H3695   1.083       .  S
C3689      C3690   1.408       .  A
C3690      H3696   1.084       .  S
C3697      C3698   1.403       .  A
C3697      C3702   1.406       .  A
C3698      C3699   1.393       .  A
C3698      H3707   1.084       .  S
C3699      C3700   1.400       .  A
C3699      H3708   1.083       .  S
C3700      C3706   1.400       .  A
C3700      C3701   1.414       .  A
C3701      C3703   1.405       .  A
C3701      C3702   1.408       .  A
C3702      H3709   1.083       .  S
C3703      C3704   1.402       .  A
C3703      H3710   1.083       .  S
C3704      C3705   1.405       .  A
C3704      H3711   1.083       .  S
C3705      C3706   1.404       .  A
C3706      H3712   1.084       .  S
C3713      C3714   1.405       .  A
C3713      C3718   1.411       .  A
C3714      C3715   1.392       .  A
C3714      H3723   1.083       .  S
C3715      C3716   1.399       .  A
C3715      H3724   1.085       .  S
C3716      C3722   1.401       .  A
C3716      C3717   1.414       .  A
C3717      C3719   1.408       .  A
C3717      C3718   1.414       .  A
C3718      H3725   1.085       .  S
C3719      C3720   1.408       .  A
C3719      H3726   1.084       .  S
C3720      C3721   1.407       .  A
C3720      H3727   1.083       .  S
C3721      C3722   1.405       .  A
C3722      H3728   1.085       .  S
C3729      C3730   1.405       .  A
C3729      C3734   1.405       .  A
C3730      C3731   1.402       .  A
C3730      H3739   1.083       .  S
C3731      C3732   1.405       .  A
C3731      H3740   1.084       .  S
C3732      C3738   1.410       .  A
C3732      C3733   1.415       .  A
C3733      C3735   1.400       .  A
C3733      C3734   1.402       .  A
C3734      H3741   1.085       .  S
C3735      C3736   1.394       .  A
C3735      H3742   1.084       .  S
C3736      C3737   1.406       .  A
C3736      H3743   1.084       .  S
C3737      C3738   1.406       .  A
C3738      H3744   1.084       .  S
C3745      C3746   1.406       .  A
C3745      C3750   1.406       .  A
C3746      C3747   1.397       .  A
C3746      H3755   1.082       .  S
C3747      C3748   1.401       .  A
C3747      H3756   1.085       .  S
C3748      C3754   1.403       .  A
C3748      C3749   1.414       .  A
C3749      C3751   1.403       .  A
C3749      C3750   1.406       .  A
C3750      H3757   1.085       .  S
C3751      C3752   1.399       .  A
C3751      H3758   1.084       .  S
C3752      C3753   1.404       .  A
C3752      H3759   1.083       .  S
C3753      C3754   1.406       .  A
C3754      H3760   1.085       .  S
C3761      C3762   1.406       .  A
C3761      C3766   1.404       .  A
C3762      C3763   1.405       .  A
C3762      H3771   1.083       .  S
C3763      C3764   1.406       .  A
C3763      H3772   1.084       .  S
C3764      C3770   1.413       .  A
C3764      C3765   1.414       .  A
C3765      C3767   1.398       .  A
C3765      C3766   1.402       .  A
C3766      H3773   1.085       .  S
C3767      C3768   1.392       .  A
C3767      H3774   1.084       .  S
C3768      C3769   1.406       .  A
C3768      H3775   1.083       .  S
C3769      C3770   1.410       .  A
C3770      H3776   1.084       .  S
C3777      C3778   1.405       .  A
C3777      C3782   1.409       .  A
C3778      C3779   1.393       .  A
C3778      H3787   1.083       .  S
C3779      C3780   1.399       .  A
C3779      H3788   1.083       .  S
C3780      C3786   1.400       .  A
C3780      C3781   1.414       .  A
C3781      C3783   1.405       .  A
C3781      C3782   1.409       .  A
C3782      H3789   1.084       .  S
C3783      C3784   1.402       .  A
C3783      H3790   1.083       .  S
C3784      C3785   1.405       .  A
C3784      H3791   1.083       .  S
C3785      C3786   1.403       .  A
C3786      H3792   1.084       .  S
C3793      C3794   1.406       .  A
C3793      C3798   1.404       .  A
C3794      C3795   1.406       .  A
C3794      H3803   1.083       .  S
C3795      C3796   1.407       .  A
C3795      H3804   1.084       .  S
C3796      C3802   1.413       .  A
C3796      C3797   1.413       .  A
C3797      C3799   1.398       .  A
C3797      C3798   1.399       .  A
C3798      H3805   1.085       .  S
C3799      C3800   1.391       .  A
C3799      H3806   1.084       .  S
C3800      C3801   1.405       .  A
C3800      H3807   1.083       .  S
C3801      C3802   1.411       .  A
C3802      H3808   1.084       .  S
C3809      C3810   1.407       .  A
C3809      C3814   1.411       .  A
C3810      C3811   1.388       .  A
C3810      H3819   1.083       .  S
C3811      C3812   1.395       .  A
C3811      H3820   1.085       .  S
C3812      C3818   1.397       .  A
C3812      C3813   1.414       .  A
C3813      C3815   1.408       .  A
C3813      C3814   1.415       .  A
C3814      H3821   1.085       .  S
C3815      C3816   1.407       .  A
C3815      H3822   1.084       .  S
C3816      C3817   1.406       .  A
C3816      H3823   1.083       .  S
C3817      C3818   1.400       .  A
C3818      H3824   1.086       .  S
C3825      C3826   1.405       .  A
C3825      C3830   1.411       .  A
C3826      C3827   1.391       .  A
C3826      H3835   1.083       .  S
C3827      C3828   1.398       .  A
C3827      H3836   1.084       .  S
C3828      C3834   1.399       .  A
C3828      C3829   1.414       .  A
C3829      C3831   1.407       .  A
C3829      C3830   1.413       .  A
C3830      H3837   1.084       .  S
C3831      C3832   1.406       .  A
C3831      H3838   1.084       .  S
C3832      C3833   1.406       .  A
C3832      H3839   1.083       .  S
C3833      C3834   1.404       .  A
C3834      H3840   1.085       .  S
C3841      C3842   1.405       .  A
C3841      C3846   1.408       .  A
C3842      C3843   1.398       .  A
C3842      H3851   1.083       .  S
C3843      C3844   1.402       .  A
C3843      H3852   1.084       .  S
C3844      C3850   1.406       .  A
C3844      C3845   1.414       .  A
C3845      C3847   1.405       .  A
C3845      C3846   1.411       .  A
C3846      H3853   1.084       .  S
C3847      C3848   1.403       .  A
C3847      H3854   1.083       .  S
C3848      C3849   1.406       .  A
C3848      H3855   1.083       .  S
C3849      C3850   1.408       .  A
C3850      H3856   1.084       .  S
C3857      C3858   1.406       .  A
C3857      C3862   1.404       .  A
C3858      C3859   1.406       .  A
C3858      H3867   1.082       .  S
C3859      C3860   1.407       .  A
C3859      H3868   1.084       .  S
C3860      C3866   1.411       .  A
C3860      C3861   1.414       .  A
C3861      C3863   1.398       .  A
C3861      C3862   1.398       .  A
C3862      H3869   1.085       .  S
C3863      C3864   1.390       .  A
C3863      H3870   1.084       .  S
C3864      C3865   1.404       .  A
C3864      H3871   1.084       .  S
C3865      C3866   1.409       .  A
C3866      H3872   1.084       .  S
C3873      C3874   1.406       .  A
C3873      C3878   1.407       .  A
C3874      C3875   1.394       .  A
C3874      H3883   1.083       .  S
C3875      C3876   1.399       .  A
C3875      H3884   1.084       .  S
C3876      C3882   1.401       .  A
C3876      C3877   1.414       .  A
C3877      C3879   1.404       .  A
C3877      C3878   1.407       .  A
C3878      H3885   1.084       .  S
C3879      C3880   1.400       .  A
C3879      H3886   1.084       .  S
C3880      C3881   1.404       .  A
C3880      H3887   1.083       .  S
C3881      C3882   1.403       .  A
C3882      H3888   1.085       .  S
C3889      C3890   1.404       .  A
C3889      C3894   1.405       .  A
C3890      C3891   1.402       .  A
C3890      H3899   1.083       .  S
C3891      C3892   1.405       .  A
C3891      H3900   1.084       .  S
C3892      C3898   1.409       .  A
C3892      C3893   1.414       .  A
C3893      C3895   1.400       .  A
C3893      C3894   1.402       .  A
C3894      H3901   1.085       .  S
C3895      C3896   1.395       .  A
C3895      H3902   1.084       .  S
C3896      C3897   1.405       .  A
C3896      H3903   1.083       .  S
C3897      C3898   1.409       .  A
C3898      H3904   1.084       .  S
C3905      C3906   1.406       .  A
C3905      C3910   1.404       .  A
C3906      C3907   1.405       .  A
C3906      H3915   1.082       .  S
C3907      C3908   1.406       .  A
C3907      H3916   1.084       .  S
C3908      C3914   1.410       .  A
C3908      C3909   1.414       .  A
C3909      C3911   1.399       .  A
C3909      C3910   1.398       .  A
C3910      H3917   1.085       .  S
C3911      C3912   1.391       .  A
C3911      H3918   1.084       .  S
C3912      C3913   1.404       .  A
C3912      H3919   1.083       .  S
C3913      C3914   1.408       .  A
C3914      H3920   1.085       .  S
C3921      C3922   1.405       .  A
C3921      C3926   1.405       .  A
C3922      C3923   1.404       .  A
C3922      H3931   1.082       .  S
C3923      C3924   1.405       .  A
C3923      H3932   1.084       .  S
C3924      C3930   1.413       .  A
C3924      C3925   1.415       .  A
C3925      C3927   1.399       .  A
C3925      C3926   1.403       .  A
C3926      H3933   1.085       .  S
C3927      C3928   1.393       .  A
C3927      H3934   1.085       .  S
C3928      C3929   1.406       .  A
C3928      H3935   1.083       .  S
C3929      C3930   1.408       .  A
C3930      H3936   1.085       .  S
C3937      C3938   1.406       .  A
C3937      C3942   1.408       .  A
C3938      C3939   1.391       .  A
C3938      H3947   1.083       .  S
C3939      C3940   1.398       .  A
C3939      H3948   1.084       .  S
C3940      C3946   1.399       .  A
C3940      C3941   1.414       .  A
C3941      C3943   1.406       .  A
C3941      C3942   1.410       .  A
C3942      H3949   1.084       .  S
C3943      C3944   1.403       .  A
C3943      H3950   1.083       .  S
C3944      C3945   1.405       .  A
C3944      H3951   1.083       .  S
C3945      C3946   1.402       .  A
C3946      H3952   1.084       .  S
C3953      C3954   1.404       .  A
C3953      C3958   1.407       .  A
C3954      C3955   1.394       .  A
C3954      H3963   1.083       .  S
C3955      C3956   1.400       .  A
C3955      H3964   1.084       .  S
C3956      C3962   1.401       .  A
C3956      C3957   1.414       .  A
C3957      C3959   1.404       .  A
C3957      C3958   1.408       .  A
C3958      H3965   1.085       .  S
C3959      C3960   1.401       .  A
C3959      H3966   1.084       .  S
C3960      C3961   1.405       .  A
C3960      H3967   1.083       .  S
C3961      C3962   1.405       .  A
C3962      H3968   1.085       .  S
C3969      C3970   1.406       .  A
C3969      C3974   1.412       .  A
C3970      C3971   1.392       .  A
C3970      H3979   1.083       .  S
C3971      C3972   1.398       .  A
C3971      H3980   1.084       .  S
C3972      C3978   1.402       .  A
C3972      C3973   1.414       .  A
C3973      C3975   1.407       .  A
C3973      C3974   1.416       .  A
C3974      H3981   1.084       .  S
C3975      C3976   1.407       .  A
C3975      H3982   1.084       .  S
C3976      C3977   1.407       .  A
C3976      H3983   1.083       .  S
C3977      C3978   1.405       .  A
C3978      H3984   1.085       .  S
C3985      C3986   1.405       .  A
C3985      C3990   1.406       .  A
C3986      C3987   1.391       .  A
C3986      H3995   1.083       .  S
C3987      C3988   1.398       .  A
C3987      H3996   1.084       .  S
C3988      C3994   1.397       .  A
C3988      C3989   1.414       .  A
C3989      C3991   1.404       .  A
C3989      C3990   1.405       .  A
C3990      H3997   1.084       .  S
C3991      C3992   1.400       .  A
C3991      H3998   1.084       .  S
C3992      C3993   1.405       .  A
C3992      H3999   1.083       .  S
C3993      C3994   1.401       .  A
C3994      H4000   1.085       .  S
C4001      C4002   1.406       .  A
C4001      C4006   1.401       .  A
C4002      C4003   1.404       .  A
C4002      H4011   1.083       .  S
C4003      C4004   1.406       .  A
C4003      H4012   1.084       .  S
C4004      C4010   1.412       .  A
C4004      C4005   1.415       .  A
C4005      C4007   1.396       .  A
C4005      C4006   1.398       .  A
C4006      H4013   1.086       .  S
C4007      C4008   1.388       .  A
C4007      H4014   1.085       .  S
C4008      C4009   1.404       .  A
C4008      H4015   1.083       .  S
C4009      C4010   1.408       .  A
C4010      H4016   1.085       .  S
C4017      C4018   1.404       .  A
C4017      C4022   1.404       .  A
C4018      C4019   1.402       .  A
C4018      H4027   1.083       .  S
C4019      C4020   1.405       .  A
C4019      H4028   1.083       .  S
C4020      C4026   1.409       .  A
C4020      C4021   1.414       .  A
C4021      C4023   1.400       .  A
C4021      C4022   1.401       .  A
C4022      H4029   1.084       .  S
C4023      C4024   1.394       .  A
C4023      H4030   1.084       .  S
C4024      C4025   1.406       .  A
C4024      H4031   1.083       .  S
C4025      C4026   1.408       .  A
C4026      H4032   1.084       .  S
C4033      C4034   1.406       .  A
C4033      C4038   1.405       .  A
C4034      C4035   1.404       .  A
C4034      H4043   1.083       .  S
C4035      C4036   1.405       .  A
C4035      H4044   1.084       .  S
C4036      C4042   1.412       .  A
C4036      C4037   1.414       .  A
C4037      C4039   1.399       .  A
C4037      C4038   1.404       .  A
C4038      H4045   1.085       .  S
C4039      C4040   1.394       .  A
C4039      H4046   1.084       .  S
C4040      C4041   1.407       .  A
C4040      H4047   1.083       .  S
C4041      C4042   1.409       .  A
C4042      H4048   1.084       .  S
C4049      C4050   1.404       .  A
C4049      C4054   1.408       .  A
C4050      C4051   1.388       .  A
C4050      H4059   1.084       .  S
C4051      C4052   1.397       .  A
C4051      H4060   1.085       .  S
C4052      C4058   1.396       .  A
C4052      C4053   1.415       .  A
C4053      C4055   1.407       .  A
C4053      C4054   1.412       .  A
C4054      H4061   1.085       .  S
C4055      C4056   1.406       .  A
C4055      H4062   1.084       .  S
C4056      C4057   1.406       .  A
C4056      H4063   1.083       .  S
C4057      C4058   1.402       .  A
C4058      H4064   1.085       .  S
C4065      C4066   1.406       .  A
C4065      C4070   1.405       .  A
C4066      C4067   1.403       .  A
C4066      H4075   1.083       .  S
C4067      C4068   1.405       .  A
C4067      H4076   1.083       .  S
C4068      C4074   1.411       .  A
C4068      C4069   1.414       .  A
C4069      C4071   1.400       .  A
C4069      C4070   1.403       .  A
C4070      H4077   1.084       .  S
C4071      C4072   1.395       .  A
C4071      H4078   1.083       .  S
C4072      C4073   1.404       .  A
C4072      H4079   1.083       .  S
C4073      C4074   1.408       .  A
C4074      H4080   1.083       .  S
C4081      C4082   1.404       .  A
C4081      C4086   1.407       .  A
C4082      C4083   1.394       .  A
C4082      H4091   1.083       .  S
C4083      C4084   1.400       .  A
C4083      H4092   1.084       .  S
C4084      C4090   1.401       .  A
C4084      C4085   1.414       .  A
C4085      C4087   1.404       .  A
C4085      C4086   1.408       .  A
C4086      H4093   1.085       .  S
C4087      C4088   1.401       .  A
C4087      H4094   1.084       .  S
C4088      C4089   1.406       .  A
C4088      H4095   1.083       .  S
C4089      C4090   1.404       .  A
C4090      H4096   1.085       .  S
C4097      C4098   1.406       .  A
C4097      C4102   1.404       .  A
C4098      C4099   1.406       .  A
C4098      H4107   1.082       .  S
C4099      C4100   1.407       .  A
C4099      H4108   1.084       .  S
C4100      C4106   1.414       .  A
C4100      C4101   1.415       .  A
C4101      C4103   1.398       .  A
C4101      C4102   1.399       .  A
C4102      H4109   1.085       .  S
C4103      C4104   1.391       .  A
C4103      H4110   1.085       .  S
C4104      C4105   1.405       .  A
C4104      H4111   1.084       .  S
C4105      C4106   1.408       .  A
C4106      H4112   1.085       .  S
C4113      C4114   1.406       .  A
C4113      C4118   1.405       .  A
C4114      C4115   1.404       .  A
C4114      H4123   1.083       .  S
C4115      C4116   1.406       .  A
C4115      H4124   1.083       .  S
C4116      C4122   1.413       .  A
C4116      C4117   1.414       .  A
C4117      C4119   1.399       .  A
C4117      C4118   1.404       .  A
C4118      H4125   1.084       .  S
C4119      C4120   1.394       .  A
C4119      H4126   1.084       .  S
C4120      C4121   1.407       .  A
C4120      H4127   1.083       .  S
C4121      C4122   1.410       .  A
C4122      H4128   1.084       .  S
C4129      C4130   1.403       .  A
C4129      C4134   1.409       .  A
C4130      C4131   1.395       .  A
C4130      H4139   1.083       .  S
C4131      C4132   1.401       .  A
C4131      H4140   1.084       .  S
C4132      C4138   1.402       .  A
C4132      C4133   1.414       .  A
C4133      C4135   1.407       .  A
C4133      C4134   1.412       .  A
C4134      H4141   1.084       .  S
C4135      C4136   1.405       .  A
C4135      H4142   1.083       .  S
C4136      C4137   1.406       .  A
C4136      H4143   1.083       .  S
C4137      C4138   1.405       .  A
C4138      H4144   1.084       .  S
C4145      C4146   1.404       .  A
C4145      C4150   1.407       .  A
C4146      C4147   1.395       .  A
C4146      H4155   1.083       .  S
C4147      C4148   1.401       .  A
C4147      H4156   1.084       .  S
C4148      C4154   1.403       .  A
C4148      C4149   1.414       .  A
C4149      C4151   1.404       .  A
C4149      C4150   1.409       .  A
C4150      H4157   1.085       .  S
C4151      C4152   1.402       .  A
C4151      H4158   1.084       .  S
C4152      C4153   1.406       .  A
C4152      H4159   1.083       .  S
C4153      C4154   1.406       .  A
C4154      H4160   1.085       .  S
C4161      C4162   1.406       .  A
C4161      C4166   1.409       .  A
C4162      C4163   1.394       .  A
C4162      H4171   1.083       .  S
C4163      C4164   1.399       .  A
C4163      H4172   1.083       .  S
C4164      C4170   1.401       .  A
C4164      C4165   1.414       .  A
C4165      C4167   1.406       .  A
C4165      C4166   1.410       .  A
C4166      H4173   1.083       .  S
C4167      C4168   1.403       .  A
C4167      H4174   1.083       .  S
C4168      C4169   1.405       .  A
C4168      H4175   1.083       .  S
C4169      C4170   1.404       .  A
C4170      H4176   1.084       .  S
C4177      C4178   1.405       .  A
C4177      C4182   1.408       .  A
C4178      C4179   1.392       .  A
C4178      H4187   1.083       .  S
C4179      C4180   1.399       .  A
C4179      H4188   1.084       .  S
C4180      C4186   1.401       .  A
C4180      C4181   1.414       .  A
C4181      C4183   1.404       .  A
C4181      C4182   1.409       .  A
C4182      H4189   1.085       .  S
C4183      C4184   1.402       .  A
C4183      H4190   1.084       .  S
C4184      C4185   1.406       .  A
C4184      H4191   1.083       .  S
C4185      C4186   1.403       .  A
C4186      H4192   1.085       .  S
C4193      C4194   1.405       .  A
C4193      C4198   1.403       .  A
C4194      C4195   1.405       .  A
C4194      H4203   1.083       .  S
C4195      C4196   1.407       .  A
C4195      H4204   1.083       .  S
C4196      C4202   1.412       .  A
C4196      C4197   1.414       .  A
C4197      C4199   1.397       .  A
C4197      C4198   1.398       .  A
C4198      H4205   1.084       .  S
C4199      C4200   1.391       .  A
C4199      H4206   1.084       .  S
C4200      C4201   1.406       .  A
C4200      H4207   1.083       .  S
C4201      C4202   1.410       .  A
C4202      H4208   1.083       .  S
C4209      C4210   1.406       .  A
C4209      C4214   1.406       .  A
C4210      C4211   1.400       .  A
C4210      H4219   1.083       .  S
C4211      C4212   1.403       .  A
C4211      H4220   1.084       .  S
C4212      C4218   1.409       .  A
C4212      C4213   1.415       .  A
C4213      C4215   1.401       .  A
C4213      C4214   1.405       .  A
C4214      H4221   1.085       .  S
C4215      C4216   1.396       .  A
C4215      H4222   1.085       .  S
C4216      C4217   1.406       .  A
C4216      H4223   1.083       .  S
C4217      C4218   1.406       .  A
C4218      H4224   1.085       .  S
C4225      C4226   1.406       .  A
C4225      C4230   1.402       .  A
C4226      C4227   1.405       .  A
C4226      H4235   1.083       .  S
C4227      C4228   1.407       .  A
C4227      H4236   1.084       .  S
C4228      C4234   1.412       .  A
C4228      C4229   1.414       .  A
C4229      C4231   1.397       .  A
C4229      C4230   1.398       .  A
C4230      H4237   1.085       .  S
C4231      C4232   1.390       .  A
C4231      H4238   1.085       .  S
C4232      C4233   1.406       .  A
C4232      H4239   1.083       .  S
C4233      C4234   1.410       .  A
C4234      H4240   1.084       .  S
C4241      C4242   1.406       .  A
C4241      C4246   1.402       .  A
C4242      C4243   1.407       .  A
C4242      H4251   1.082       .  S
C4243      C4244   1.408       .  A
C4243      H4252   1.084       .  S
C4244      C4250   1.413       .  A
C4244      C4245   1.414       .  A
C4245      C4247   1.397       .  A
C4245      C4246   1.396       .  A
C4246      H4253   1.085       .  S
C4247      C4248   1.388       .  A
C4247      H4254   1.085       .  S
C4248      C4249   1.404       .  A
C4248      H4255   1.083       .  S
C4249      C4250   1.409       .  A
C4250      H4256   1.085       .  S
C4257      C4258   1.405       .  A
C4257      C4262   1.408       .  A
C4258      C4259   1.392       .  A
C4258      H4267   1.083       .  S
C4259      C4260   1.399       .  A
C4259      H4268   1.085       .  S
C4260      C4266   1.400       .  A
C4260      C4261   1.414       .  A
C4261      C4263   1.405       .  A
C4261      C4262   1.409       .  A
C4262      H4269   1.084       .  S
C4263      C4264   1.403       .  A
C4263      H4270   1.084       .  S
C4264      C4265   1.405       .  A
C4264      H4271   1.083       .  S
C4265      C4266   1.403       .  A
C4266      H4272   1.085       .  S
C4273      C4274   1.405       .  A
C4273      C4278   1.402       .  A
C4274      C4275   1.403       .  A
C4274      H4283   1.083       .  S
C4275      C4276   1.405       .  A
C4275      H4284   1.084       .  S
C4276      C4282   1.409       .  A
C4276      C4277   1.414       .  A
C4277      C4279   1.397       .  A
C4277      C4278   1.398       .  A
C4278      H4285   1.085       .  S
C4279      C4280   1.390       .  A
C4279      H4286   1.084       .  S
C4280      C4281   1.405       .  A
C4280      H4287   1.083       .  S
C4281      C4282   1.408       .  A
C4282      H4288   1.085       .  S
C4289      C4290   1.405       .  A
C4289      C4294   1.408       .  A
C4290      C4291   1.390       .  A
C4290      H4299   1.083       .  S
C4291      C4292   1.398       .  A
C4291      H4300   1.084       .  S
C4292      C4298   1.398       .  A
C4292      C4293   1.414       .  A
C4293      C4295   1.406       .  A
C4293      C4294   1.411       .  A
C4294      H4301   1.084       .  S
C4295      C4296   1.404       .  A
C4295      H4302   1.084       .  S
C4296      C4297   1.406       .  A
C4296      H4303   1.083       .  S
C4297      C4298   1.403       .  A
C4298      H4304   1.085       .  S
C4305      C4306   1.404       .  A
C4305      C4310   1.403       .  A
C4306      C4307   1.402       .  A
C4306      H4315   1.083       .  S
C4307      C4308   1.405       .  A
C4307      H4316   1.084       .  S
C4308      C4314   1.409       .  A
C4308      C4309   1.415       .  A
C4309      C4311   1.400       .  A
C4309      C4310   1.401       .  A
C4310      H4317   1.085       .  S
C4311      C4312   1.394       .  A
C4311      H4318   1.084       .  S
C4312      C4313   1.402       .  A
C4312      H4319   1.084       .  S
C4313      C4314   1.406       .  A
C4314      H4320   1.085       .  S
