geometry optimzed in LAMMPS
_audit_creation_date              2020-11-30 
_audit_creation_method            'lammps2cif' 
_symmetry_space_group_name_H-M    'P1' 
_symmetry_Int_Tables_number       1 
_symmetry_cell_setting            triclinic 
loop_ 
_symmetry_equiv_pos_as_xyz 
  x,y,z 
_cell_length_a                    38.82145645 
_cell_length_b                    38.70289018333754 
_cell_length_c                    38.707757273192904 
_cell_angle_alpha                 90.08516029242067 
_cell_angle_beta                  90.08838972026503 
_cell_angle_gamma                 89.95278078374633 
loop_ 
_atom_site_label 
_atom_site_type_symbol 
_atom_site_fract_x 
_atom_site_fract_y 
_atom_site_fract_z 
_atom_site_charge 
N1          N  0.45155278  0.67902192  0.99066959    -0.26500
N2          N  0.43442369  0.64959739  0.99307824    -0.34400
C3          C  0.40040902  0.65605920  0.99175437     0.01800
C4          C  0.39538510  0.69131872  0.98842616     0.07900
C5          C  0.42855206  0.70504678  0.98785836    -0.05200
H6          H  0.38063803  0.63632799  0.99404186     0.08500
H7          H  0.43551230  0.73200932  0.98548559     0.09700
Cu8        Cu  0.45751316  0.60167561  0.99889576     0.44200
Cu9        Cu  0.50572071  0.68179704  0.99219386     0.42000
Cu10       Cu  0.55004770  0.59902054  0.00174329     0.43900
N11         N  0.48541095  0.55629788  0.00358724    -0.33900
N12         N  0.51943229  0.55523979  0.00425336    -0.28100
C13         C  0.52965879  0.52220147  0.00756456    -0.04300
C14         C  0.50063721  0.50154465  0.00916279     0.08000
C15         C  0.47303319  0.52399194  0.00654723     0.01800
H16         H  0.55627852  0.51392595  0.00908577     0.09400
H17         H  0.44598612  0.51743604  0.00697634     0.08500
N18         N  0.57520654  0.64623052  0.99995384    -0.35300
N19         N  0.55958359  0.67636363  0.99593154    -0.27500
C20         C  0.58377945  0.70138326  0.99515903    -0.02800
C21         C  0.61607671  0.68627902  0.99914273     0.05800
C22         C  0.60943374  0.65127651  0.00214681     0.03900
H23         H  0.57823686  0.72860779  0.99230436     0.09000
H24         H  0.62815404  0.63078644  0.00499826     0.07900
N25         N  0.44209468  0.28889595  0.03482808    -0.26500
N26         N  0.42632861  0.31911862  0.03224054    -0.34400
C27         C  0.39204455  0.31422948  0.03287650     0.01800
C28         C  0.38548437  0.27922242  0.03585860     0.07900
C29         C  0.41792271  0.26391792  0.03693607    -0.05200
H30         H  0.37328252  0.33470846  0.03046055     0.08500
H31         H  0.42355953  0.23668098  0.03931960     0.09700
Cu32       Cu  0.45098722  0.36631195  0.02669650     0.44200
Cu33       Cu  0.49602858  0.28330755  0.03505852     0.42000
Cu34       Cu  0.54270942  0.36431580  0.02641210     0.43900
N35         N  0.48085350  0.41028195  0.02066216    -0.33900
N36         N  0.51485927  0.40936992  0.02065993    -0.28100
C37         C  0.52710403  0.44154808  0.01639223    -0.04300
C38         C  0.49940319  0.46383110  0.01357888     0.08000
C39         C  0.47045055  0.44316719  0.01637245     0.01800
H40         H  0.55412916  0.44815332  0.01551757     0.09400
H41         H  0.44379186  0.45139189  0.01551815     0.08500
N42         N  0.56647974  0.31679832  0.03062247    -0.35300
N43         N  0.55008279  0.28700827  0.03348522    -0.27500
C44         C  0.57369637  0.26139374  0.03394878    -0.02800
C45         C  0.60642807  0.27587248  0.03128351     0.05800
C46         C  0.60058090  0.31105996  0.02928176     0.03900
H47         H  0.56745220  0.23423947  0.03591016     0.09000
H48         H  0.61962781  0.33113810  0.02578447     0.07900
N49         N  0.69062881  0.97731594  0.43740430    -0.26500
N50         N  0.66007844  0.97418400  0.42254330    -0.34400
C51         C  0.66398311  0.97353758  0.38802637     0.01800
C52         C  0.69870113  0.97650405  0.38034794     0.07900
C53         C  0.71482767  0.97872666  0.41243336    -0.05200
H54         H  0.64297645  0.97102262  0.36996736     0.08500
H55         H  0.74200037  0.98204335  0.41729548     0.09700
Cu56       Cu  0.61358543  0.97234267  0.44879959     0.44200
Cu57       Cu  0.69766844  0.98040649  0.49120724     0.42000
Cu58       Cu  0.61824553  0.97929128  0.54081071     0.43900
N59         N  0.57033258  0.97335888  0.48014276    -0.33900
N60         N  0.57220706  0.97595556  0.51412731    -0.28100
C61         C  0.54019577  0.97620890  0.52729530    -0.04300
C62         C  0.51703039  0.97368079  0.50025899     0.08000
C63         C  0.53698925  0.97195418  0.47070151     0.01800
H64         H  0.53429909  0.97821015  0.55452605     0.09400
H65         H  0.52800347  0.96990316  0.44429102     0.08500
N66         N  0.66664933  0.98211408  0.56300010    -0.35300
N67         N  0.69583815  0.98258040  0.54546084    -0.27500
C68         C  0.72222019  0.98409055  0.56818072    -0.02800
C69         C  0.70892627  0.98447486  0.60159292     0.05800
C70         C  0.67355202  0.98328781  0.59701496     0.03900
H71         H  0.74905833  0.98411668  0.56088941     0.09000
H72         H  0.65405480  0.98357259  0.61685955     0.07900
N73         N  0.30103113  0.98770399  0.45814756    -0.26500
N74         N  0.32955476  0.98127234  0.44064767    -0.34400
C75         C  0.32250459  0.98107707  0.40666577     0.01800
C76         C  0.28778455  0.98781413  0.40204403     0.07900
C77         C  0.27493537  0.99174319  0.43540196    -0.05200
H78         H  0.34145117  0.97615302  0.38680793     0.08500
H79         H  0.24871580  0.99780162  0.44261918     0.09700
Cu80       Cu  0.37762699  0.97449405  0.46265017     0.44200
Cu81       Cu  0.29989382  0.99097267  0.51235729     0.42000
Cu82       Cu  0.38327602  0.97843696  0.55477926     0.43900
N83         N  0.42392755  0.97302750  0.48901282    -0.33900
N84         N  0.42607322  0.97464912  0.52304004    -0.28100
C85         C  0.45947071  0.97481655  0.53229477    -0.04300
C86         C  0.47922594  0.97321713  0.50260815     0.08000
C87         C  0.45586363  0.97207593  0.47563603     0.01800
H88         H  0.46863738  0.97650919  0.55866989     0.09400
H89         H  0.46157896  0.97125829  0.44829913     0.08500
N90         N  0.33744995  0.98607499  0.58116785    -0.35300
N91         N  0.30724003  0.99121645  0.56618263    -0.27500
C92         C  0.28342164  0.99623061  0.59102676    -0.02800
C93         C  0.29935959  0.99411969  0.62321992     0.05800
C94         C  0.33364657  0.98755432  0.61567379     0.03900
H95         H  0.25658239  0.00158557  0.58589747     0.09000
H96         H  0.35444665  0.98371334  0.63384585     0.07900
O97         O  0.87533162  0.98320118  0.94166291    -0.72200
O98         O  0.86999587  0.98183633  0.04287719    -0.73100
O99         O  0.87521309  0.93248786  0.99151307    -0.61800
O100        O  0.87209302  0.03265701  0.99247509    -0.70200
O101        O  0.81504849  0.03407285  0.98974376    -0.69700
O102        O  0.81841583  0.92736895  0.98850117    -0.61000
O103        O  0.81299596  0.98009253  0.04290970    -0.73500
O104        O  0.81870180  0.98156451  0.93513945    -0.72300
Cu105      Cu  0.87457479  0.98258889  0.99226255     1.04600
Cu106      Cu  0.81376497  0.98068995  0.98895409     1.04300
C107        C  0.84899685  0.98287619  0.92193302     0.94000
C108        C  0.84166452  0.98056447  0.05948936     0.93200
C109        C  0.84854352  0.91364524  0.98972260     0.85300
C110        C  0.84420892  0.04970183  0.99098676     0.91600
C111        C  0.82837027  0.98655639  0.15611148     0.81000
N112        N  0.81973146  0.98409682  0.12158178    -0.77300
C113        C  0.84534303  0.97910228  0.09776518     0.83400
N114        N  0.87808398  0.97566733  0.10896152    -0.77200
C115        C  0.88699641  0.97893272  0.14239968     0.83500
N116        N  0.86212520  0.98454661  0.16608721    -0.79000
C117        C  0.82982453  0.14331397  0.00680451     0.81000
N118        N  0.86334025  0.15504967  0.00503445    -0.77300
C119        C  0.88896167  0.13263199  0.99548877     0.83400
N120        N  0.88045982  0.09975082  0.98744690    -0.77200
C121        C  0.84819514  0.08743649  0.99094338     0.83500
N122        N  0.82282009  0.10930273  0.00039712    -0.79000
O123        O  0.00729252  0.93658781  0.87241645    -0.72200
O124        O  0.00713893  0.03829537  0.87472933    -0.73100
O125        O  0.95730797  0.98749109  0.87052356    -0.61800
O126        O  0.05686174  0.98722188  0.87796094    -0.70200
O127        O  0.06373900  0.98960516  0.82115568    -0.69700
O128        O  0.95765614  0.98785630  0.81325099    -0.61000
O129        O  0.00969713  0.04256950  0.81775642    -0.73500
O130        O  0.01149856  0.93472529  0.81541012    -0.72300
Cu131      Cu  0.00698851  0.98738429  0.87535436     1.04600
Cu132      Cu  0.01082399  0.98874215  0.81439322     1.04300
C133        C  0.00976774  0.91906302  0.84459177     0.94000
C134        C  0.00829684  0.05697635  0.84762908     0.93200
C135        C  0.94118086  0.98747135  0.84195917     0.85300
C136        C  0.07646343  0.98845404  0.85179397     0.91600
C137        C  0.99833731  0.15385001  0.84021974     0.81000
N138        N  0.99851612  0.16172228  0.87473256    -0.77300
C139        C  0.00434872  0.13675632  0.89839613     0.83400
N140        N  0.01003378  0.10419840  0.88747801    -0.77200
C141        C  0.00813114  0.09493851  0.85393796     0.83500
N142        N  0.00258752  0.12003220  0.82969499    -0.79000
C143        C  0.17145384  0.00160004  0.84745857     0.81000
N144        N  0.13800971  0.99822715  0.83685669    -0.77300
C145        C  0.11352433  0.98841486  0.85957687     0.83400
N146        N  0.12251176  0.98264879  0.89270535    -0.77200
C147        C  0.15473873  0.98805689  0.90465356     0.83500
N148        N  0.17995555  0.99705834  0.88173452    -0.79000
O149        O  0.12964250  0.98644518  0.95941829    -0.72200
O150        O  0.12444020  0.98920777  0.06075607    -0.73100
O151        O  0.12435870  0.03807029  0.00842667    -0.61800
O152        O  0.12810074  0.93771744  0.01174544    -0.70200
O153        O  0.18519218  0.93673163  0.01305275    -0.69700
O154        O  0.18104189  0.04314474  0.01360068    -0.61000
O155        O  0.18112708  0.98972793  0.06714914    -0.73500
O156        O  0.18653916  0.99054085  0.95961659    -0.72300
Cu157      Cu  0.12516714  0.98783907  0.01001757     1.04600
Cu158      Cu  0.18596291  0.99014648  0.01348408     1.04300
C159        C  0.15799663  0.98839414  0.94294291     0.94000
C160        C  0.15085294  0.98917393  0.08040948     0.93200
C161        C  0.15106121  0.05685431  0.01065690     0.85300
C162        C  0.15615496  0.92085465  0.01262435     0.91600
O163        O  0.98835998  0.03470872  0.18597369    -0.72200
O164        O  0.99102553  0.92720414  0.18447633    -0.73100
O165        O  0.04263685  0.98251295  0.18906573    -0.61800
O166        O  0.93669690  0.97993051  0.18078704    -0.70200
O167        O  0.94366012  0.98072390  0.12393242    -0.69700
O168        O  0.04328640  0.98244203  0.13179312    -0.61000
O169        O  0.99423431  0.93118635  0.12749873    -0.73500
O170        O  0.99255638  0.03214049  0.12895350    -0.72300
Cu171      Cu  0.98949275  0.98102643  0.18759673     1.04600
Cu172      Cu  0.99358807  0.98165575  0.12660606     1.04300
C173        C  0.99009909  0.04989576  0.15657257     0.94000
C174        C  0.99283203  0.91271375  0.15464894     0.93200
C175        C  0.05926667  0.98296736  0.16045822     0.85300
C176        C  0.92403203  0.97992651  0.15012178     0.91600
O177        O  0.04833677  0.17194163  0.00825069    -0.72200
O178        O  0.94081737  0.16893762  0.00136719    -0.73100
O179        O  0.99115497  0.16859109  0.05789796    -0.61800
O180        O  0.99804584  0.17094882  0.95120332    -0.70200
O181        O  0.00022362  0.11375988  0.95324646    -0.69700
O182        O  0.99210452  0.11154981  0.05273942    -0.61000
O183        O  0.94549861  0.11198209  0.99884542    -0.73500
O184        O  0.04659958  0.11480146  0.00699257    -0.72300
Cu185      Cu  0.99448722  0.17264944  0.00472780     1.04600
Cu186      Cu  0.99612427  0.11161417  0.00296994     1.04300
C187        C  0.06402603  0.14270016  0.00849027     0.94000
C188        C  0.92668831  0.13901985  0.99890932     0.93200
C189        C  0.99050082  0.13838274  0.07154178     0.85300
C190        C  0.00063822  0.14154568  0.93592941     0.91600
C191        C  0.98792744  0.14654316  0.16764976     0.81000
N192        N  0.98766913  0.15609249  0.13362530    -0.77300
C193        C  0.98829659  0.13150680  0.10878125     0.83400
N194        N  0.98853969  0.09802710  0.11812763    -0.77200
C195        C  0.98894259  0.08777251  0.15136448     0.83500
N196        N  0.98905826  0.11222449  0.17675382    -0.79000
C197        C  0.15343537  0.99366854  0.17802781     0.81000
N198        N  0.11885752  0.99013087  0.18418750    -0.77300
C199        C  0.09698382  0.98418768  0.15758769     0.83400
N200        N  0.10963957  0.98235891  0.12535020    -0.77200
C201        C  0.14310760  0.98743480  0.11797654     0.83500
N202        N  0.16573714  0.99262901  0.14459322    -0.79000
C203        C  0.16000258  0.15159527  0.02388155     0.81000
N204        N  0.16872515  0.11763322  0.01986101    -0.77300
C205        C  0.14493559  0.09425523  0.01004355     0.83400
N206        N  0.11245355  0.10487593  0.00414700    -0.77200
C207        C  0.10214958  0.13778192  0.00951915     0.83500
N208        N  0.12624174  0.16192040  0.01908395    -0.79000
O209        O  0.95234804  0.79906242  0.99478843    -0.72200
O210        O  0.06014025  0.80121729  0.00031184    -0.73100
O211        O  0.00360738  0.79943456  0.05082835    -0.61800
O212        O  0.00876935  0.80199420  0.94429531    -0.70200
O213        O  0.00932312  0.85911012  0.94876542    -0.69700
O214        O  0.00058493  0.85658955  0.04868888    -0.61000
O215        O  0.05553127  0.85813856  0.00320658    -0.73500
O216        O  0.95433380  0.85620056  0.99428986    -0.72300
Cu217      Cu  0.00628642  0.79791659  0.99747494     1.04600
Cu218      Cu  0.00492360  0.85895261  0.99876199     1.04300
C219        C  0.93677648  0.82835231  0.99342566     0.94000
C220        C  0.07433590  0.83108049  0.00311859     0.93200
C221        C  0.00085685  0.82879200  0.06607056     0.85300
C222        C  0.01009476  0.83201461  0.93026623     0.91600
C223        C  0.00512193  0.81654725  0.16161341     0.81000
N224        N  0.99964951  0.85001005  0.17239458    -0.77300
C225        C  0.99311667  0.87489397  0.14830812     0.83400
N226        N  0.99096808  0.86563697  0.11476470    -0.77200
C227        C  0.99769863  0.83334526  0.10366307     0.83500
N228        N  0.00514214  0.80859005  0.12715518    -0.79000
C229        C  0.17178108  0.82683287  0.99883878     0.81000
N230        N  0.17834723  0.86106755  0.00476387    -0.77300
C231        C  0.15245379  0.88302978  0.01259464     0.83400
N232        N  0.12014857  0.87062940  0.01482815    -0.77200
C233        C  0.11206787  0.83758921  0.00712444     0.83500
N234        N  0.13818762  0.81500254  0.99932854    -0.79000
C235        C  0.00153586  0.82219459  0.83486776     0.81000
N236        N  0.00476931  0.81355831  0.86897858    -0.77300
C237        C  0.01214445  0.83794124  0.89282202     0.83400
N238        N  0.01635238  0.87085343  0.88248195    -0.77200
C239        C  0.01156651  0.88091575  0.84944610     0.83500
N240        N  0.00448066  0.85631798  0.82493471    -0.79000
C241        C  0.84658662  0.98324870  0.82400801     0.81000
N242        N  0.83418876  0.98300273  0.85745732    -0.77300
C243        C  0.85706166  0.98438205  0.88437692     0.83400
N244        N  0.89092376  0.98661346  0.87732885    -0.77200
C245        C  0.90348896  0.98679549  0.84502954     0.83500
N246        N  0.88133254  0.98502704  0.81813897    -0.79000
C247        C  0.83978211  0.81785633  0.99599292     0.81000
N248        N  0.87403368  0.80826457  0.99481084    -0.77300
C249        C  0.89868014  0.83324932  0.99070776     0.83400
N250        N  0.88849779  0.86640348  0.98707112    -0.77200
C251        C  0.85525133  0.87624476  0.98904957     0.83500
N252        N  0.83075698  0.85193560  0.99372311    -0.79000
N253        N  0.00616281  0.43243664  0.69398172    -0.26500
N254        N  0.00395716  0.41650926  0.66380413    -0.34400
C255        C  0.00300762  0.38218053  0.66874888     0.01800
C256        C  0.00464128  0.37559304  0.70381927     0.07900
C257        C  0.00671895  0.40820113  0.71905119    -0.05200
H258        H  0.00181861  0.36342720  0.64806049     0.08500
H259        H  0.00790400  0.41394940  0.74637640     0.09700
Cu260      Cu  0.00309902  0.44084441  0.61644684     0.44200
Cu261      Cu  0.00769797  0.48675725  0.69884937     0.42000
Cu262      Cu  0.00784036  0.53236313  0.61594847     0.43900
N263        N  0.00636046  0.46913583  0.57149157    -0.33900
N264        N  0.00840853  0.50317841  0.57121268    -0.28100
C265        C  0.01079935  0.51408005  0.53834008    -0.04300
C266        C  0.01028769  0.48537232  0.51702180     0.08000
C267        C  0.00745619  0.45731863  0.53886988     0.01800
H268        H  0.01281178  0.54084235  0.53062182     0.09400
H269        H  0.00626718  0.43030186  0.53167403     0.08500
N270        N  0.00603870  0.55684092  0.66341697    -0.35300
N271        N  0.00663731  0.54106021  0.69372705    -0.27500
C272        C  0.00534478  0.56540461  0.71876713    -0.02800
C273        C  0.00345697  0.59784276  0.70333467     0.05800
C274        C  0.00400685  0.59116291  0.66827082     0.03900
H275        H  0.00507821  0.55989434  0.74614858     0.09000
H276        H  0.00339010  0.60994039  0.64760808     0.07900
N277        N  0.01318440  0.42676259  0.30320938    -0.26500
N278        N  0.01301240  0.41177454  0.33391149    -0.34400
C279        C  0.01144204  0.37737753  0.32997047     0.01800
C280        C  0.01063059  0.36989845  0.29511921     0.07900
C281        C  0.01197198  0.40184284  0.27879547    -0.05200
H282        H  0.01087380  0.35914734  0.35112057     0.08500
H283        H  0.01104760  0.40664811  0.25128835     0.09700
Cu284      Cu  0.01377235  0.43711366  0.38074716     0.44200
Cu285      Cu  0.01316213  0.48062898  0.29666373     0.42000
Cu286      Cu  0.01078321  0.52797964  0.37873326     0.43900
N287        N  0.01328429  0.46655077  0.42511369    -0.33900
N288        N  0.01240986  0.50062089  0.42441986    -0.28100
C289        C  0.01173654  0.51269351  0.45698569    -0.04300
C290        C  0.01199972  0.48471137  0.47915570     0.08000
C291        C  0.01301638  0.45584027  0.45810505     0.01800
H292        H  0.01051502  0.53977285  0.46392023     0.09400
H293        H  0.01317532  0.42907178  0.46607210     0.08500
N294        N  0.00999197  0.55111877  0.33072029    -0.35300
N295        N  0.01133534  0.53472943  0.30075140    -0.27500
C296        C  0.01158111  0.55849772  0.27525180    -0.02800
C297        C  0.01043439  0.59133528  0.29000898     0.05800
C298        C  0.00919570  0.58532268  0.32521072     0.03900
H299        H  0.01331426  0.55228204  0.24809054     0.09000
H300        H  0.00767471  0.60431607  0.34561017     0.07900
C301        C  0.00940568  0.76316952  0.75612169     0.13500
C302        C  0.99495740  0.73248050  0.76916240     0.00400
C303        C  0.97855172  0.73322822  0.80134472     0.15400
C304        C  0.97845510  0.76332268  0.82126986     0.24200
C305        C  0.99537803  0.79349560  0.80978775    -0.41500
C306        C  0.00967737  0.79352034  0.77631879     0.31800
C307        C  0.99853756  0.69889871  0.75081646     0.00500
F308        F  0.96337487  0.70428428  0.81397623    -0.13800
F309        F  0.02577082  0.82207681  0.76402375    -0.14400
C310        C  0.01964825  0.67287119  0.76483703     0.15400
C311        C  0.02105349  0.63998418  0.74966073     0.24800
C312        C  0.00141820  0.63246307  0.72002894    -0.41500
C313        C  0.98042933  0.65868381  0.70587184     0.31800
C314        C  0.97901068  0.69157457  0.72115965     0.13500
F315        F  0.03896170  0.67941358  0.79337692    -0.13800
F316        F  0.96023390  0.65211172  0.67796681    -0.14400
F317        F  0.04227532  0.61577224  0.76349701    -0.16600
F318        F  0.95769900  0.71592341  0.70769792    -0.15200
F319        F  0.02481297  0.76322995  0.72466715    -0.15200
F320        F  0.96246671  0.76253300  0.85244383    -0.16600
C321        C  0.03878135  0.73416133  0.20105655     0.13500
C322        C  0.01206586  0.72563973  0.22385256     0.00400
C323        C  0.98499228  0.74918234  0.22909585     0.15400
C324        C  0.98392583  0.78032257  0.21062126     0.24800
C325        C  0.00978070  0.78804511  0.18646786    -0.41500
C326        C  0.03755335  0.76503688  0.18234147     0.31800
C327        C  0.01163622  0.69140663  0.24074626     0.00500
F328        F  0.95886805  0.74125073  0.25095642    -0.13800
F329        F  0.06300886  0.77208299  0.15938627    -0.14400
C330        C  0.02600785  0.68707839  0.27364855     0.15400
C331        C  0.02597098  0.65456872  0.28944529     0.24800
C332        C  0.01124931  0.62567321  0.27264153    -0.41500
C333        C  0.99698429  0.63022850  0.23944264     0.31800
C334        C  0.99729684  0.66280478  0.22365242     0.13500
F335        F  0.04041042  0.71436244  0.29035070    -0.13800
F336        F  0.98183298  0.60348182  0.22257926    -0.14400
F337        F  0.04128442  0.65136705  0.32081259    -0.16600
F338        F  0.98337045  0.66656172  0.19167818    -0.15200
F339        F  0.06544258  0.71198206  0.19609816    -0.15200
F340        F  0.95643043  0.80167678  0.21443958    -0.16600
C341        C  0.98276189  0.27716899  0.27999772     0.13500
C342        C  0.00151197  0.26848957  0.25030984     0.00400
C343        C  0.02346076  0.29311244  0.23536560     0.15400
C344        C  0.02625303  0.32626353  0.24966809     0.24800
C345        C  0.00743437  0.33510040  0.27942508    -0.41500
C346        C  0.98582698  0.31010838  0.29459328     0.31800
C347        C  0.99619703  0.23475572  0.23323870     0.00500
F348        F  0.04159790  0.28520318  0.20644580    -0.13800
F349        F  0.96667370  0.31790826  0.32286790    -0.14400
C350        C  0.96606337  0.22907565  0.21399711     0.15400
C351        C  0.96251607  0.19911120  0.19414100     0.24800
C352        C  0.98872578  0.17406271  0.19385997    -0.41500
C353        C  0.01805231  0.17880246  0.21461522     0.31800
C354        C  0.02191092  0.20918025  0.23400845     0.13500
F355        F  0.94091518  0.25346537  0.21301720    -0.13800
F356        F  0.04395388  0.15521688  0.21413163    -0.14400
F357        F  0.93403320  0.19507430  0.17412984    -0.16600
F358        F  0.05117977  0.21421866  0.25256863    -0.15200
F359        F  0.96121142  0.25378097  0.29461852    -0.15200
F360        F  0.04781759  0.34946749  0.23480706    -0.16600
C361        C  0.97956778  0.24330846  0.80505418     0.13500
C362        C  0.99726348  0.24304493  0.77353099     0.00400
C363        C  0.01195470  0.21192942  0.76178745     0.15400
C364        C  0.01080388  0.18204343  0.78243693     0.24800
C365        C  0.99482628  0.18289142  0.81513311    -0.41500
C366        C  0.97811722  0.21364146  0.82549279     0.31800
C367        C  0.00127334  0.27585876  0.75408769     0.00500
F368        F  0.02882118  0.21094533  0.73110995    -0.13800
F369        F  0.96067820  0.21531616  0.85584026    -0.14400
C370        C  0.02044339  0.30315720  0.76843644     0.15400
C371        C  0.02190166  0.33534816  0.75197838     0.24800
C372        C  0.00394321  0.34105074  0.72086838    -0.41500
C373        C  0.98531397  0.31330410  0.70616421     0.31800
C374        C  0.98412016  0.28103799  0.72259685     0.13500
F375        F  0.03775768  0.29857412  0.79859141    -0.13800
F376        F  0.96694548  0.31766977  0.67663114    -0.14400
F377        F  0.04143313  0.36070431  0.76625555    -0.16600
F378        F  0.96506632  0.25522490  0.70844880    -0.15200
F379        F  0.96408361  0.27269556  0.81636647    -0.15200
F380        F  0.02696143  0.15300441  0.77125969    -0.16600
C381        C  0.21003859  0.03217660  0.76373809     0.13500
C382        C  0.23679338  0.00824107  0.75894807     0.00400
C383        C  0.24554153  0.98580326  0.78616796     0.15400
C384        C  0.22618522  0.98569456  0.81682328     0.24800
C385        C  0.19774332  0.00791392  0.82050469    -0.41500
C386        C  0.19070428  0.03203028  0.79420240     0.31800
C387        C  0.25317074  0.00465615  0.72447640     0.00500
F388        F  0.27119726  0.96231572  0.78204772    -0.13800
F389        F  0.16394239  0.05443523  0.79737683    -0.14400
C390        C  0.28773852  0.01374934  0.71927687     0.15400
C391        C  0.30272947  0.01058816  0.68644559     0.24800
C392        C  0.28343257  0.99791797  0.65813446    -0.41500
C393        C  0.24877013  0.98865183  0.66367480     0.31800
C394        C  0.23383466  0.99214379  0.69641731     0.13500
F395        F  0.30676762  0.02641679  0.74588024    -0.13800
F396        F  0.22945180  0.97515697  0.63772206    -0.14400
F397        F  0.33584890  0.02094388  0.68231355    -0.16600
F398        F  0.20047291  0.98267009  0.70093623    -0.15200
F399        F  0.20169962  0.05472654  0.73820711    -0.15200
F400        F  0.23329771  0.96182681  0.84148773    -0.16600
C401        C  0.18508634  0.01622289  0.26801473     0.13500
C402        C  0.21552533  0.99673428  0.27049322     0.00400
C403        C  0.22732035  0.97884553  0.24106495     0.15400
C404        C  0.20820525  0.97929147  0.21018519     0.24800
C405        C  0.17683525  0.99745373  0.20828101    -0.41500
C406        C  0.16591413  0.01650205  0.23736391     0.31800
C407        C  0.23416024  0.99433914  0.30410283     0.00500
F408        F  0.25649025  0.95954843  0.24273759    -0.13800
F409        F  0.13635313  0.03526054  0.23624846    -0.14400
C410        C  0.21732108  0.98166342  0.33367460     0.15400
C411        C  0.23454898  0.97976771  0.36549481     0.24800
C412        C  0.26907609  0.99049504  0.36847721    -0.41500
C413        C  0.28585927  0.00324860  0.33878792     0.31800
C414        C  0.26859842  0.00506715  0.30699790     0.13500
F415        F  0.18428516  0.97035445  0.33155366    -0.13800
F416        F  0.31873915  0.01500957  0.34060999    -0.14400
F417        F  0.21770858  0.96632567  0.39307572    -0.16600
F418        F  0.28532434  0.01813490  0.27915364    -0.15200
F419        F  0.17374511  0.03485914  0.29549983    -0.15200
F420        F  0.21929019  0.96022178  0.18292083    -0.16600
C421        C  0.73222132  0.96950361  0.69614957     0.13500
C422        C  0.76415377  0.98623319  0.69884259     0.00400
C423        C  0.77780023  0.00274115  0.66955725     0.15400
C424        C  0.75986553  0.00239631  0.63805642     0.24800
C425        C  0.72797816  0.98524988  0.63510568    -0.41500
C426        C  0.71435776  0.96886953  0.66466200     0.31800
C427        C  0.78414376  0.98465893  0.73159901     0.00500
F428        F  0.80849165  0.01942747  0.67156327    -0.13800
F429        F  0.68436596  0.95096400  0.66292638    -0.14400
C430        C  0.81528894  0.96631872  0.73264446     0.15400
C431        C  0.83459342  0.96472282  0.76312074     0.24800
C432        C  0.82334921  0.98169715  0.79338925    -0.41500
C433        C  0.79165399  0.99941234  0.79258302     0.31800
C434        C  0.77220881  0.00084768  0.76190853     0.13500
F435        F  0.82695471  0.94968695  0.70403665    -0.13800
F436        F  0.78028930  0.01668728  0.82090226    -0.14400
F437        F  0.86441053  0.94634052  0.76297665    -0.16600
F438        F  0.74227740  0.01899818  0.76144153    -0.15200
F439        F  0.71889405  0.95265614  0.72380912    -0.15200
F440        F  0.77342647  0.01952025  0.61070014    -0.16600
C441        C  0.76303423  0.96683651  0.30669029     0.13500
C442        C  0.74536658  0.98238718  0.27903417     0.00400
C443        C  0.71208756  0.99536518  0.28456098     0.15400
C444        C  0.69688356  0.99337787  0.31736086     0.24800
C445        C  0.71466323  0.97813799  0.34533932    -0.41500
C446        C  0.74785961  0.96463912  0.33946388     0.31800
C447        C  0.76284445  0.98702829  0.24523123     0.00500
F448        F  0.69479724  0.01111827  0.25845121    -0.13800
F449        F  0.76549007  0.94872303  0.36523974    -0.14400
C450        C  0.75319791  0.96771634  0.21591466     0.15400
C451        C  0.77280668  0.96947419  0.18538218     0.24800
C452        C  0.80227324  0.99059934  0.18388827    -0.41500
C453        C  0.81015968  0.01173758  0.21252581     0.31800
C454        C  0.79077387  0.00983119  0.24284573     0.13500
F455        F  0.72605744  0.94569566  0.21755176    -0.13800
F456        F  0.83761866  0.03344295  0.21160470    -0.14400
F457        F  0.76453584  0.94865690  0.15837442    -0.16600
F458        F  0.79994907  0.02953258  0.27042234    -0.15200
F459        F  0.79513531  0.95374197  0.30187521    -0.15200
F460        F  0.66533425  0.00777030  0.32195808    -0.16600
C461        C  0.76886700  0.22072716  0.00878873     0.13500
C462        C  0.73870490  0.20554777  0.02223742     0.00400
C463        C  0.74028239  0.17132560  0.03411019     0.15400
C464        C  0.77045418  0.15198244  0.03072378     0.24800
C465        C  0.80021663  0.16634140  0.01548158    -0.41500
C466        C  0.79942801  0.20135625  0.00564697     0.31800
C467        C  0.70523167  0.22454697  0.02333822     0.00500
F468        F  0.71229694  0.15634842  0.04884132    -0.13800
F469        F  0.82754052  0.21633049  0.99124124    -0.14400
C470        C  0.67537603  0.20967719  0.00884993     0.15400
C471        C  0.64332094  0.22603185  0.01186464     0.24800
C472        C  0.64036853  0.25804980  0.02885079    -0.41500
C473        C  0.67039605  0.27337169  0.04260779     0.31800
C474        C  0.70240043  0.25669732  0.04005484     0.13500
F475        F  0.67730879  0.17934606  0.99127468    -0.13800
F476        F  0.66870830  0.30401456  0.05962530    -0.14400
F477        F  0.61536198  0.21092320  0.99715845    -0.16600
F478        F  0.73043160  0.27149124  0.05496074    -0.15200
F479        F  0.76832636  0.25377229  0.99710632    -0.15200
F480        F  0.77024384  0.11881109  0.04213837    -0.16600
C481        C  0.24733744  0.18214021  0.05434170     0.13500
C482        C  0.25072368  0.21388658  0.03733729     0.00400
C483        C  0.22194589  0.22778448  0.01999644     0.15400
C484        C  0.19100242  0.20890585  0.01762211     0.24800
C485        C  0.18845524  0.17592512  0.03272056    -0.41500
C486        C  0.21657694  0.16355182  0.05236808     0.31800
C487        C  0.28492101  0.23118545  0.03640576     0.00500
F488        F  0.22450075  0.25867337  0.00364768    -0.13800
F489        F  0.21478157  0.13261687  0.06880520    -0.14400
C490        C  0.31286328  0.21512663  0.01969970     0.15400
C491        C  0.34556926  0.23047655  0.01978281     0.24800
C492        C  0.35103635  0.26229630  0.03657214    -0.41500
C493        C  0.32297596  0.27829878  0.05335213     0.31800
C494        C  0.29027681  0.26286347  0.05325922     0.13500
F495        F  0.30830661  0.18466336  0.00285779    -0.13800
F496        F  0.32737942  0.30841085  0.07082134    -0.14400
F497        F  0.37159072  0.21468465  0.00247505    -0.16600
F498        F  0.26401590  0.27838333  0.07044824    -0.15200
F499        F  0.27432177  0.16860658  0.07215406    -0.15200
F500        F  0.16458662  0.22177972  0.99857482    -0.16600
C501        C  0.75521048  0.77956471  0.02515631     0.13500
C502        C  0.74972623  0.75361188  0.00043483     0.00400
C503        C  0.77579918  0.74634945  0.97626907     0.15400
C504        C  0.80660657  0.76549832  0.97628741     0.24800
C505        C  0.81150179  0.79244471  0.00022571    -0.41500
C506        C  0.78566210  0.79891187  0.02494266     0.31800
C507        C  0.71607525  0.73542990  0.99915236     0.00500
F508        F  0.77086919  0.72152261  0.95195992    -0.13800
F509        F  0.78949239  0.82485721  0.04829507    -0.14400
C510        C  0.68989169  0.74702455  0.97690080     0.15400
C511        C  0.65735108  0.73126902  0.97706543     0.24800
C512        C  0.65044718  0.70339034  0.99934528    -0.41500
C513        C  0.67691429  0.69166293  0.02144494     0.31800
C514        C  0.70931770  0.70771921  0.02147603     0.13500
F515        F  0.69578597  0.77390796  0.95521916    -0.13800
F516        F  0.67115224  0.66533850  0.04383563    -0.14400
F517        F  0.63287781  0.74275471  0.95477973    -0.16600
F518        F  0.73408846  0.69643884  0.04354908    -0.15200
F519        F  0.73037216  0.78711280  0.04865771    -0.15200
F520        F  0.83052004  0.75934033  0.95148430    -0.16600
C521        C  0.32638849  0.75980744  0.00330625     0.13500
C522        C  0.29719802  0.74501276  0.98741830     0.00400
C523        C  0.30067027  0.71245353  0.97156069     0.15400
C524        C  0.33247845  0.69507618  0.97175501     0.24800
C525        C  0.36173014  0.71003518  0.98748645    -0.41500
C526        C  0.35823706  0.74269858  0.00312206     0.31800
C527        C  0.26363988  0.76413563  0.98696866     0.00500
F528        F  0.27347613  0.69781961  0.95502067    -0.13800
F529        F  0.38536566  0.75769371  0.01942287    -0.14400
C530        C  0.26246432  0.79832246  0.97489686     0.15400
C531        C  0.23224031  0.81784355  0.97738194     0.24800
C532        C  0.20192097  0.80371264  0.99177826    -0.41500
C533        C  0.20244802  0.76878628  0.00202664     0.31800
C534        C  0.23304203  0.74924584  0.99977517     0.13500
F535        F  0.29089292  0.81310591  0.96084368    -0.13800
F536        F  0.17400080  0.75406263  0.01602179    -0.14400
F537        F  0.23294383  0.85096987  0.96587108    -0.16600
F538        F  0.23316094  0.71629617  0.01173342    -0.15200
F539        F  0.32392728  0.79070196  0.01978653    -0.15200
F540        F  0.33480180  0.66400636  0.95560585    -0.16600
loop_ 
_geom_bond_atom_site_label_1 
_geom_bond_atom_site_label_2 
_geom_bond_distance 
_geom_bond_site_symmetry_2 
_ccdc_geom_bond_type 
N1            N2   1.323       .  A
N1            C5   1.350       .  A
N1           Cu9   2.106       .  S
N2            C3   1.345       .  A
N2           Cu8   2.072       .  S
C3            C4   1.385       .  A
C3            H6   1.087       .  S
C4            C5   1.394       .  A
C4          C525   1.494       .  S
C5            H7   1.082       .  S
Cu8          N11   2.071   1_556  S
Cu9          N19   2.106       .  S
Cu10         N12   2.073       .  S
Cu10         N18   2.074   1_554  S
N11          N12   1.322       .  A
N11          C15   1.345       .  A
N12          C13   1.345       .  A
C13          C14   1.384       .  A
C13          H16   1.083       .  S
C14          C15   1.383       .  A
C14          C38   1.471       .  S
C15          H17   1.081       .  S
N18          N19   1.323       .  A
N18          C22   1.346   1_556  A
N19          C20   1.350       .  A
C20          C21   1.391       .  A
C20          H23   1.081       .  S
C21          C22   1.384   1_556  A
C21         C512   1.490       .  S
C22          H24   1.081       .  S
N25          N26   1.324       .  A
N25          C29   1.350       .  A
N25         Cu33   2.105       .  S
N26          C27   1.345       .  A
N26         Cu32   2.074       .  S
C27          C28   1.384       .  A
C27          H30   1.080       .  S
C28          C29   1.392       .  A
C28         C492   1.490       .  S
C29          H31   1.080       .  S
Cu32         N35   2.074       .  S
Cu33         N43   2.104       .  S
Cu34         N36   2.063       .  S
Cu34         N42   2.063       .  S
N35          N36   1.321       .  A
N35          C39   1.345       .  A
N36          C37   1.344       .  A
C37          C38   1.382       .  A
C37          H40   1.081       .  S
C38          C39   1.384       .  A
C39          H41   1.083       .  S
N42          N43   1.322       .  A
N42          C46   1.343       .  A
N43          C44   1.350       .  A
C44          C45   1.393       .  A
C44          H47   1.082       .  S
C45          C46   1.383       .  A
C45         C472   1.490       .  S
C46          H48   1.082       .  S
N49          N50   1.323       .  A
N49          C53   1.350       .  A
N49         Cu57   2.103       .  S
N50          C51   1.345       .  A
N50         Cu56   2.074       .  S
C51          C52   1.386       .  A
C51          H54   1.078       .  S
C52          C53   1.393       .  A
C52         C445   1.492       .  S
C53          H55   1.079       .  S
Cu56         N59   2.073       .  S
Cu57         N67   2.103       .  S
Cu58         N60   2.067       .  S
Cu58         N66   2.068       .  S
N59          N60   1.321       .  A
N59          C63   1.346       .  A
N60          C61   1.344       .  A
C61          C62   1.382       .  A
C61          H64   1.082       .  S
C62          C63   1.384       .  A
C62          C86   1.471       .  S
C63          H65   1.082       .  S
N66          N67   1.322       .  A
N66          C70   1.344       .  A
N67          C68   1.350       .  A
C68          C69   1.393       .  A
C68          H71   1.080       .  S
C69          C70   1.385       .  A
C69         C425   1.493       .  S
C70          H72   1.079       .  S
N73          N74   1.322       .  A
N73          C77   1.350       .  A
N73         Cu81   2.102       .  S
N74          C75   1.343       .  A
N74         Cu80   2.067       .  S
C75          C76   1.384       .  A
C75          H78   1.081       .  S
C76          C77   1.393       .  A
C76         C412   1.491       .  S
C77          H79   1.081       .  S
Cu80         N83   2.066       .  S
Cu81         N91   2.102       .  S
Cu82         N84   2.073       .  S
Cu82         N90   2.074       .  S
N83          N84   1.321       .  A
N83          C87   1.345       .  A
N84          C85   1.345       .  A
C85          C86   1.384       .  A
C85          H88   1.083       .  S
C86          C87   1.383       .  A
C87          H89   1.082       .  S
N90          N91   1.323       .  A
N90          C94   1.345       .  A
N91          C92   1.349       .  A
C92          C93   1.393       .  A
C92          H95   1.080   1_565  S
C93          C94   1.386       .  A
C93         C392   1.494       .  S
C94          H96   1.080       .  S
O97        Cu105   1.959       .  S
O97         C107   1.275       .  A
O98        Cu105   1.968   1_554  S
O98         C108   1.276       .  A
O99        Cu105   1.939       .  S
O99         C109   1.269       .  A
O100       Cu105   1.940   1_545  S
O100        C110   1.268       .  A
O101       Cu106   2.067   1_545  S
O101        C110   1.285       .  A
O102       Cu106   2.071       .  S
O102        C109   1.285       .  A
O103       Cu106   2.089   1_554  S
O103        C108   1.284       .  A
O104       Cu106   2.092       .  S
O104        C107   1.284       .  A
Cu105      Cu106   2.365       .  S
C107        C243   1.489       .  S
C108        C113   1.489       .  S
C109        C251   1.471       .  S
C110        C121   1.469       .  S
C111        N112   1.381       .  A
C111        N116   1.368       .  A
C111        C452   1.486       .  S
N112        C113   1.370       .  A
C113        N114   1.349       .  A
N114        C115   1.345       .  A
C115        N116   1.350       .  A
C115        C176   1.469       .  S
C117        N118   1.380       .  A
C117        N122   1.367       .  A
C117        C465   1.492       .  S
N118        C119   1.370   1_554  A
C119        N120   1.351       .  A
C119        C188   1.491       .  S
N120        C121   1.348       .  A
C121        N122   1.349   1_556  A
O123       Cu131   1.969       .  S
O123        C133   1.276       .  A
O124       Cu131   1.971   1_545  S
O124        C134   1.276       .  A
O125       Cu131   1.937   1_655  S
O125        C135   1.270       .  A
O126       Cu131   1.939       .  S
O126        C136   1.269       .  A
O127       Cu132   2.071       .  S
O127        C136   1.285       .  A
O128       Cu132   2.065   1_655  S
O128        C135   1.283       .  A
O129       Cu132   2.088   1_545  S
O129        C134   1.284       .  A
O130       Cu132   2.091       .  S
O130        C133   1.285       .  A
Cu131      Cu132   2.365       .  S
C133        C239   1.490       .  S
C134        C141   1.489       .  S
C135        C245   1.469       .  S
C136        C145   1.470       .  S
C137        N138   1.370       .  A
C137        N142   1.380   1_655  A
C137        C365   1.492       .  S
N138        C139   1.351   1_655  A
C139        N140   1.347       .  A
C139        C190   1.472       .  S
N140        C141   1.348       .  A
C141        N142   1.368       .  A
C143        N144   1.367   1_545  A
C143        N148   1.378   1_545  A
C143        C385   1.481       .  S
N144        C145   1.351       .  A
C145        N146   1.347       .  A
N146        C147   1.350       .  A
C147        N148   1.368       .  A
C147        C159   1.487       .  S
O149       Cu157   1.967   1_556  S
O149        C159   1.275       .  A
O150       Cu157   1.965       .  S
O150        C160   1.276       .  A
O151       Cu157   1.945   1_545  S
O151        C161   1.269       .  A
O152       Cu157   1.944       .  S
O152        C162   1.270       .  A
O153       Cu158   2.068       .  S
O153        C162   1.284       .  A
O154       Cu158   2.060   1_545  S
O154        C161   1.284       .  A
O155       Cu158   2.086       .  S
O155        C160   1.283       .  A
O156       Cu158   2.085   1_556  S
O156        C159   1.284       .  A
Cu157      Cu158   2.366       .  S
C160        C201   1.487       .  S
C161        C205   1.467       .  S
C162        C231   1.471       .  S
O163       Cu171   2.079   1_545  S
O163        C173   1.284       .  A
O164       Cu171   2.087       .  S
O164        C174   1.285       .  A
O165       Cu171   2.065   1_455  S
O165        C175   1.283       .  A
O166       Cu171   2.067       .  S
O166        C176   1.284       .  A
O167       Cu172   1.941       .  S
O167        C176   1.270       .  A
O168       Cu172   1.940   1_455  S
O168        C175   1.271       .  A
O169       Cu172   1.954       .  S
O169        C174   1.273       .  A
O170       Cu172   1.956   1_545  S
O170        C173   1.274       .  A
Cu171      Cu172   2.367       .  S
C173        C195   1.481       .  S
C174        C225   1.484       .  S
C175        C199   1.469       .  S
O177       Cu185   2.095   1_455  S
O177        C187   1.285       .  A
O178       Cu185   2.092       .  S
O178        C188   1.285   1_554  A
O179       Cu185   2.069       .  S
O179        C189   1.284       .  A
O180       Cu185   2.078   1_556  S
O180        C190   1.286   1_655  A
O181       Cu186   1.933   1_456  S
O181        C190   1.268       .  A
O182       Cu186   1.933       .  S
O182        C189   1.269       .  A
O183       Cu186   1.972   1_556  S
O183        C188   1.276       .  A
O184       Cu186   1.969   1_455  S
O184        C187   1.276       .  A
Cu185      Cu186   2.364       .  S
C187        C207   1.493       .  S
C189        C193   1.469       .  S
C191        N192   1.368       .  A
C191        N196   1.375       .  A
C191        C352   1.470       .  S
N192        C193   1.352       .  A
C193        N194   1.346       .  A
N194        C195   1.347       .  A
C195        N196   1.363       .  A
C197        N198   1.371       .  A
C197        N202   1.381       .  A
C197        C405   1.488       .  S
N198        C199   1.353       .  A
C199        N200   1.344       .  A
N200        C201   1.345       .  A
C201        N202   1.368       .  A
C203        N204   1.366       .  A
C203        N208   1.382       .  A
C203        C485   1.491       .  S
N204        C205   1.347       .  A
C205        N206   1.345       .  A
N206        C207   1.350       .  A
C207        N208   1.373       .  A
O209       Cu217   2.097   1_655  S
O209        C219   1.285       .  A
O210       Cu217   2.097   1_554  S
O210        C220   1.285       .  A
O211       Cu217   2.069   1_554  S
O211        C221   1.284       .  A
O212       Cu217   2.067       .  S
O212        C222   1.284       .  A
O213       Cu218   1.943       .  S
O213        C222   1.269       .  A
O214       Cu218   1.942   1_554  S
O214        C221   1.270       .  A
O215       Cu218   1.972   1_554  S
O215        C220   1.276       .  A
O216       Cu218   1.974   1_655  S
O216        C219   1.276       .  A
Cu217      Cu218   2.363       .  S
C219        C249   1.494       .  S
C220        C233   1.494       .  S
C221        C227   1.471   1_455  S
C222        C237   1.470       .  S
C223        N224   1.377   1_455  A
C223        N228   1.368       .  A
C223        C325   1.476       .  S
N224        C225   1.365       .  A
C225        N226   1.349       .  A
N226        C227   1.347       .  A
C227        N228   1.353   1_655  A
C229        N230   1.368   1_556  A
C229        N234   1.383       .  A
C229        C532   1.498       .  S
N230        C231   1.350       .  A
C231        N232   1.346       .  A
N232        C233   1.350       .  A
C233        N234   1.372   1_554  A
C235        N236   1.368       .  A
C235        N240   1.381       .  A
C235        C305   1.493   1_455  S
N236        C237   1.350       .  A
C237        N238   1.346       .  A
N238        C239   1.350       .  A
C239        N240   1.371       .  A
C241        N242   1.382       .  A
C241        N246   1.370       .  A
C241        C432   1.490       .  S
N242        C243   1.369       .  A
C243        N244   1.346       .  A
N244        C245   1.343       .  A
C245        N246   1.351       .  A
C247        N248   1.381       .  A
C247        N252   1.367       .  A
C247        C505   1.484   1_556  S
N248        C249   1.370       .  A
C249        N250   1.350       .  A
N250        C251   1.348       .  A
C251        N252   1.351       .  A
N253        N254   1.323       .  A
N253        C257   1.351       .  A
N253       Cu261   2.111       .  S
N254        C255   1.343       .  A
N254       Cu260   2.062       .  S
C255        C256   1.383       .  A
C255        H258   1.081       .  S
C256        C257   1.395       .  A
C256        C372   1.492       .  S
C257        H259   1.081       .  S
Cu260       N263   2.061       .  S
Cu261       N271   2.112       .  S
Cu262       N264   2.066       .  S
Cu262       N270   2.067       .  S
N263        N264   1.320       .  A
N263        C267   1.343       .  A
N264        C265   1.345       .  A
C265        C266   1.383       .  A
C265        H268   1.081       .  S
C266        C267   1.382       .  A
C266        C290   1.468       .  S
C267        H269   1.083       .  S
N270        N271   1.324       .  A
N270        C274   1.344       .  A
N271        C272   1.352       .  A
C272        C273   1.393       .  A
C272        H275   1.081       .  S
C273        C274   1.381       .  A
C273        C312   1.489       .  S
C274        H276   1.082       .  S
N277        N278   1.323       .  A
N277        C281   1.350       .  A
N277       Cu285   2.100       .  S
N278        C279   1.341       .  A
N278       Cu284   2.060       .  S
C279        C280   1.380       .  A
C279        H282   1.082       .  S
C280        C281   1.390       .  A
C280        C345   1.482       .  S
C281        H283   1.082       .  S
Cu284       N287   2.060       .  S
Cu285       N295   2.101       .  S
Cu286       N288   2.063       .  S
Cu286       N294   2.064       .  S
N287        N288   1.319       .  A
N287        C291   1.343       .  A
N288        C289   1.344       .  A
C289        C290   1.383       .  A
C289        H292   1.083       .  S
C290        C291   1.383       .  A
C291        H293   1.081       .  S
N294        N295   1.322       .  A
N294        C298   1.341       .  A
N295        C296   1.350       .  A
C296        C297   1.393       .  A
C296        H299   1.080       .  S
C297        C298   1.384       .  A
C297        C332   1.491       .  S
C298        H300   1.080       .  S
C301        C302   1.409   1_455  A
C301        C306   1.410       .  A
C301        F319   1.357       .  S
C302        C303   1.400       .  A
C302        C307   1.487       .  S
C303        C304   1.396       .  A
C303        F308   1.358       .  S
C304        C305   1.413       .  A
C304        F320   1.358       .  S
C305        C306   1.410   1_655  A
C306        F309   1.357       .  S
C307        C310   1.407   1_655  A
C307        C314   1.403       .  A
C310        C311   1.402       .  A
C310        F315   1.358       .  S
C311        C312   1.406       .  A
C311        F317   1.357       .  S
C312        C313   1.412   1_455  A
C313        C314   1.404       .  A
C313        F316   1.358       .  S
C314        F318   1.358       .  S
C321        C322   1.403       .  A
C321        C326   1.399       .  A
C321        F339   1.358       .  S
C322        C323   1.405   1_455  A
C322        C327   1.478       .  S
C323        C324   1.403       .  A
C323        F328   1.357       .  S
C324        C325   1.405   1_655  A
C324        F340   1.358       .  S
C325        C326   1.407       .  A
C326        F329   1.358       .  S
C327        C330   1.400       .  A
C327        C334   1.404   1_455  A
C330        C331   1.400       .  A
C330        F335   1.358       .  S
C331        C332   1.414       .  A
C331        F337   1.357       .  S
C332        C333   1.410   1_455  A
C333        C334   1.402       .  A
C333        F336   1.357       .  S
C334        F338   1.358       .  S
C341        C342   1.402   1_655  A
C341        C346   1.399       .  A
C341        F359   1.358       .  S
C342        C343   1.405       .  A
C342        C347   1.477   1_455  S
C343        C344   1.401       .  A
C343        F348   1.358       .  S
C344        C345   1.407       .  A
C344        F360   1.357       .  S
C345        C346   1.410   1_455  A
C346        F349   1.358       .  S
C347        C350   1.403       .  A
C347        C354   1.406   1_655  A
C350        C351   1.397       .  A
C350        F355   1.358       .  S
C351        C352   1.405       .  A
C351        F357   1.358       .  S
C352        C353   1.404   1_655  A
C353        C354   1.402       .  A
C353        F356   1.358       .  S
C354        F358   1.357       .  S
C361        C362   1.401       .  A
C361        C366   1.397       .  A
C361        F379   1.358       .  S
C362        C363   1.407   1_655  A
C362        C367   1.486   1_655  S
C363        C364   1.408       .  A
C363        F368   1.357       .  S
C364        C365   1.411   1_455  A
C364        F380   1.357       .  S
C365        C366   1.413       .  A
C366        F369   1.358       .  S
C367        C370   1.406       .  A
C367        C374   1.403   1_455  A
C370        C371   1.401       .  A
C370        F375   1.358       .  S
C371        C372   1.408       .  A
C371        F377   1.357       .  S
C372        C373   1.414   1_455  A
C373        C374   1.403       .  A
C373        F376   1.357       .  S
C374        F378   1.358       .  S
C381        C382   1.404       .  A
C381        C386   1.399       .  A
C381        F399   1.358       .  S
C382        C383   1.407   1_545  A
C382        C387   1.485       .  S
C383        C384   1.406       .  A
C383        F388   1.357       .  S
C384        C385   1.406   1_565  A
C384        F400   1.357       .  S
C385        C386   1.409       .  A
C386        F389   1.358       .  S
C387        C390   1.403       .  A
C387        C394   1.405   1_545  A
C390        C391   1.404       .  A
C390        F395   1.358       .  S
C391        C392   1.414   1_545  A
C391        F397   1.357       .  S
C392        C393   1.410       .  A
C393        C394   1.401       .  A
C393        F396   1.357       .  S
C394        F398   1.358       .  S
C401        C402   1.405   1_545  A
C401        C406   1.400       .  A
C401        F419   1.358       .  S
C402        C403   1.409       .  A
C402        C407   1.491       .  S
C403        C404   1.406       .  A
C403        F408   1.358       .  S
C404        C405   1.408       .  A
C404        F420   1.357       .  S
C405        C406   1.410   1_565  A
C406        F409   1.358       .  S
C407        C410   1.408       .  A
C407        C414   1.405   1_565  A
C410        C411   1.403       .  A
C410        F415   1.358       .  S
C411        C412   1.408       .  A
C411        F417   1.357       .  S
C412        C413   1.412   1_565  A
C413        C414   1.402       .  A
C413        F416   1.357       .  S
C414        F418   1.358       .  S
C421        C422   1.403       .  A
C421        C426   1.402       .  A
C421        F439   1.358       .  S
C422        C423   1.407   1_565  A
C422        C427   1.487       .  S
C423        C424   1.403       .  A
C423        F428   1.358       .  S
C424        C425   1.409   1_545  A
C424        F440   1.357       .  S
C425        C426   1.412       .  A
C426        F429   1.357       .  S
C427        C430   1.402       .  A
C427        C434   1.408   1_565  A
C430        C431   1.398       .  A
C430        F435   1.358       .  S
C431        C432   1.412       .  A
C431        F437   1.358       .  S
C432        C433   1.408       .  A
C433        C434   1.407   1_565  A
C433        F436   1.357   1_565  S
C434        F438   1.357       .  S
C441        C442   1.406       .  A
C441        C446   1.402       .  A
C441        F459   1.358       .  S
C442        C443   1.402       .  A
C442        C447   1.486       .  S
C443        C444   1.403       .  A
C443        F448   1.357   1_565  S
C444        C445   1.413       .  A
C444        F460   1.357   1_565  S
C445        C446   1.409       .  A
C446        F449   1.357       .  S
C447        C450   1.408       .  A
C447        C454   1.402   1_565  A
C450        C451   1.409       .  A
C450        F455   1.357       .  S
C451        C452   1.408       .  A
C451        F457   1.357       .  S
C452        C453   1.410   1_565  A
C453        C454   1.397       .  A
C453        F456   1.358       .  S
C454        F458   1.358       .  S
C461        C462   1.411       .  A
C461        C466   1.408       .  A
C461        F479   1.357   1_554  S
C462        C463   1.404       .  A
C462        C467   1.493       .  S
C463        C464   1.396       .  A
C463        F468   1.358       .  S
C464        C465   1.413       .  A
C464        F480   1.358       .  S
C465        C466   1.408       .  A
C466        F469   1.357   1_554  S
C467        C470   1.410       .  A
C467        C474   1.406       .  A
C470        C471   1.401       .  A
C470        F475   1.358   1_554  S
C471        C472   1.407       .  A
C471        F477   1.357   1_554  S
C472        C473   1.412       .  A
C473        C474   1.403       .  A
C473        F476   1.357       .  S
C474        F478   1.358       .  S
C481        C482   1.401       .  A
C481        C486   1.397       .  A
C481        F499   1.358       .  S
C482        C483   1.409       .  A
C482        C487   1.488       .  S
C483        C484   1.409       .  A
C483        F488   1.357       .  S
C484        C485   1.408       .  A
C484        F500   1.357   1_554  S
C485        C486   1.413       .  A
C486        F489   1.359       .  S
C487        C490   1.407       .  A
C487        C494   1.403       .  A
C490        C491   1.402       .  A
C490        F495   1.358       .  S
C491        C492   1.408       .  A
C491        F497   1.357       .  S
C492        C493   1.411       .  A
C493        C494   1.403       .  A
C493        F496   1.357       .  S
C494        F498   1.357       .  S
C501        C502   1.402       .  A
C501        C506   1.400       .  A
C501        F519   1.358       .  S
C502        C503   1.407   1_554  A
C502        C507   1.485   1_554  S
C503        C504   1.408       .  A
C503        F508   1.357       .  S
C504        C505   1.407   1_556  A
C504        F520   1.357       .  S
C505        C506   1.409       .  A
C506        F509   1.358       .  S
C507        C510   1.405       .  A
C507        C514   1.403   1_556  A
C510        C511   1.403       .  A
C510        F515   1.358       .  S
C511        C512   1.408       .  A
C511        F517   1.357       .  S
C512        C513   1.411   1_556  A
C513        C514   1.404       .  A
C513        F516   1.358       .  S
C514        F518   1.358       .  S
C521        C522   1.410   1_554  A
C521        C526   1.402       .  A
C521        F539   1.358       .  S
C522        C523   1.407       .  A
C522        C527   1.498       .  S
C523        C524   1.406       .  A
C523        F528   1.358       .  S
C524        C525   1.412       .  A
C524        F540   1.357       .  S
C525        C526   1.407   1_556  A
C526        F529   1.357       .  S
C527        C530   1.405       .  A
C527        C534   1.412       .  A
C530        C531   1.398       .  A
C530        F535   1.358       .  S
C531        C532   1.414       .  A
C531        F537   1.358       .  S
C532        C533   1.409   1_556  A
C533        C534   1.410   1_554  A
C533        F536   1.357       .  S
C534        F538   1.357   1_556  S
