geometry optimzed in LAMMPS
_audit_creation_date              2020-11-30 
_audit_creation_method            'lammps2cif' 
_symmetry_space_group_name_H-M    'P1' 
_symmetry_Int_Tables_number       1 
_symmetry_cell_setting            triclinic 
loop_ 
_symmetry_equiv_pos_as_xyz 
  x,y,z 
_cell_length_a                    90.56958149 
_cell_length_b                    90.59471104750398 
_cell_length_c                    134.9602606301128 
_cell_angle_alpha                 90.0187714170279 
_cell_angle_beta                  90.04590656332682 
_cell_angle_gamma                 120.15468514293379 
loop_ 
_atom_site_label 
_atom_site_type_symbol 
_atom_site_fract_x 
_atom_site_fract_y 
_atom_site_fract_z 
_atom_site_charge 
N1          N  0.33690948  0.29455686  0.66644682    -0.25800
N2          N  0.35330523  0.29992498  0.66517003    -0.33700
C3          C  0.35800369  0.29137814  0.67132625     0.02500
C4          C  0.34390410  0.27996933  0.67678199     0.08600
C5          C  0.33074346  0.28239622  0.67349252    -0.04500
H6          H  0.37085257  0.29352418  0.67183413     0.09200
H7          H  0.31756102  0.27559066  0.67586717     0.10400
Cu8        Cu  0.36888702  0.31856465  0.65518812     0.44200
Cu9        Cu  0.32380820  0.30401939  0.65842754     0.42000
Cu10       Cu  0.35013941  0.33775488  0.64068883     0.43900
N11         N  0.38256827  0.33766666  0.64501492    -0.33200
N12         N  0.37567933  0.34469968  0.63952630    -0.27400
C13         C  0.38770564  0.35626189  0.63344958    -0.03500
C14         C  0.40293721  0.35656060  0.63526456     0.08700
C15         C  0.39914691  0.34459123  0.64265393     0.02500
H16         H  0.38548773  0.36384291  0.62811025     0.10100
H17         H  0.40765487  0.34075956  0.64586371     0.09200
N18         N  0.32441061  0.32884490  0.64323978    -0.34600
N19         N  0.31471362  0.31644450  0.64947305    -0.26800
C20         C  0.29870877  0.31384509  0.64911473    -0.02100
C21         C  0.29840806  0.32529050  0.64242534     0.06600
C22         C  0.31491130  0.33456038  0.63885776     0.04600
H23         H  0.28816957  0.30455072  0.65353983     0.09800
H24         H  0.31966241  0.34463118  0.63338120     0.08600
N25         N  0.93115679  0.28981511  0.67048256    -0.25800
N26         N  0.91912431  0.29388024  0.66931256    -0.33700
C27         C  0.90652479  0.28505259  0.67585744     0.02500
C28         C  0.91064734  0.27474754  0.68135467     0.08600
C29         C  0.92634131  0.27805429  0.67773068    -0.04500
H30         H  0.89493632  0.28569140  0.67635445     0.09200
H31         H  0.93372186  0.27234849  0.68018254     0.10400
Cu32       Cu  0.91958431  0.31055874  0.65861408     0.44200
Cu33       Cu  0.95359688  0.30053980  0.66215384     0.42000
Cu34       Cu  0.95758190  0.33218639  0.64409429     0.43900
N35         N  0.92329809  0.32856144  0.64792397    -0.33200
N36         N  0.93767300  0.33702802  0.64287901    -0.27400
C37         C  0.93670566  0.34840631  0.63693116    -0.03500
C38         C  0.92085985  0.34687910  0.63820592     0.08700
C39         C  0.91262552  0.33411398  0.64518486     0.02500
H40         H  0.94667030  0.35692270  0.63191032     0.10100
H41         H  0.89994957  0.32941101  0.64816203     0.09200
N42         N  0.97572206  0.32504076  0.64618757    -0.34600
N43         N  0.97462879  0.31381488  0.65283941    -0.26800
C44         C  0.98880814  0.31254030  0.65227126    -0.02100
C45         C  0.99913625  0.32333320  0.64482801     0.06600
C46         C  0.99040789  0.33101501  0.64115316     0.04600
H47         H  0.99125609  0.30414613  0.65679901     0.09800
H48         H  0.99449998  0.34041896  0.63530110     0.08600
N49         N  0.13693007  0.34749319  0.61457009    -0.25800
N50         N  0.13351386  0.35477673  0.60710668    -0.33700
C51         C  0.11888018  0.35463012  0.60902119     0.02500
C52         C  0.11268145  0.34681737  0.61809112     0.08600
C53         C  0.12444767  0.34240394  0.62138770    -0.04500
H54         H  0.11297855  0.35951571  0.60404343     0.09200
H55         H  0.12406222  0.33608794  0.62826472     0.10400
Cu56       Cu  0.14831879  0.36422220  0.59437277     0.44200
Cu57       Cu  0.15842928  0.34485182  0.61515528     0.42000
Cu58       Cu  0.18585829  0.36095795  0.59339712     0.43900
N59         N  0.16476089  0.37245359  0.58225884    -0.33200
N60         N  0.17861387  0.37112975  0.58194281    -0.27400
C61         C  0.18673271  0.37751260  0.57331270    -0.03500
C62         C  0.17762084  0.38326953  0.56786311     0.08700
C63         C  0.16370185  0.37977533  0.57380798     0.02500
H64         H  0.19834199  0.37774056  0.57115968     0.10100
H65         H  0.15370395  0.38264531  0.57223276     0.09200
N66         N  0.19097644  0.35052293  0.60563330    -0.34600
N67         N  0.18112381  0.34459067  0.61355088    -0.26800
C68         C  0.18852043  0.33910867  0.62011306    -0.02100
C69         C  0.20377402  0.34173515  0.61611869     0.06600
C70         C  0.20484476  0.34900944  0.60693629     0.04600
H71         H  0.18314505  0.33362759  0.62724978     0.09800
H72         H  0.21519142  0.35340005  0.60166371     0.08600
N73         N  0.98308568  0.66765604  0.64841844    -0.25800
N74         N  0.98647117  0.65722320  0.64331673    -0.33700
C75         C  0.00227495  0.66609332  0.63955678     0.02500
C76         C  0.00918599  0.68294484  0.64231845     0.08600
C77         C  0.99666890  0.68356856  0.64787886    -0.04500
H78         H  0.00819590  0.66067885  0.63500173     0.09200
H79         H  0.99750516  0.69466181  0.65144485     0.10400
Cu80       Cu  0.96989196  0.63149668  0.64106627     0.44200
Cu81       Cu  0.96066061  0.65965011  0.65640147     0.42000
Cu82       Cu  0.93068408  0.61413622  0.65395595     0.43900
N83         N  0.95079712  0.60644368  0.63920881    -0.33200
N84         N  0.93623082  0.59989936  0.64409351    -0.27400
C85         C  0.92637953  0.58343052  0.64146501    -0.03500
C86         C  0.93515190  0.57943883  0.63454050     0.08700
C87         C  0.95059785  0.59440347  0.63327150     0.02500
H88         H  0.91366745  0.57505160  0.64429001     0.10100
H89         H  0.96103080  0.59634917  0.62851037     0.09200
N90         N  0.92705814  0.63029755  0.66335219    -0.34600
N91         N  0.93783673  0.64686341  0.66425736    -0.26800
C92         C  0.93148953  0.65338551  0.67086809    -0.02100
C93         C  0.91588184  0.64031142  0.67426875     0.06600
C94         C  0.91360509  0.62587376  0.66933252     0.04600
H95         H  0.93765459  0.66673861  0.67287755     0.09800
H96         H  0.90300690  0.61298453  0.67007544     0.08600
N97         N  0.32074717  0.00790366  0.65120149    -0.25800
N98         N  0.33170960  0.00379837  0.64752177    -0.33700
C99         C  0.32309993  0.98865847  0.64288565     0.02500
C100        C  0.30572889  0.98282663  0.64356114     0.08600
C101        C  0.30480117  0.99547018  0.64892327    -0.04500
H102        H  0.32919829  0.98246433  0.63928552     0.09200
H103        H  0.29344634  0.99591812  0.65083120     0.10400
Cu104      Cu  0.35789164  0.01979657  0.64790654     0.44200
Cu105      Cu  0.32837908  0.03055218  0.65893762     0.42000
Cu106      Cu  0.37368876  0.06261135  0.65689181     0.43900
N107        N  0.38268075  0.03939495  0.64580275    -0.33200
N108        N  0.38845869  0.05524580  0.64880231    -0.27400
C109        C  0.40443933  0.06511139  0.64535151    -0.03500
C110        C  0.40891011  0.05496478  0.63986092     0.08700
C111        C  0.39473968  0.03873031  0.64036227     0.02500
H112        H  0.41207605  0.07870382  0.64664195     0.10100
H113        H  0.39287665  0.02739325  0.63658018     0.09200
N114        N  0.35624928  0.06566874  0.66538471    -0.34600
N115        N  0.33987022  0.05407604  0.66619098    -0.26800
C116        C  0.33247045  0.05984711  0.67256383    -0.02100
C117        C  0.34477151  0.07580841  0.67597440     0.06600
C118        C  0.35967311  0.07905664  0.67122417     0.04600
H119        H  0.31921159  0.05269612  0.67477660     0.09800
H120        H  0.37216373  0.09030230  0.67198079     0.08600
N121        N  0.18976278  0.84631356  0.61147227    -0.25800
N122        N  0.19874457  0.85140870  0.60318493    -0.33700
C123        C  0.21219953  0.86716335  0.60455281     0.02500
C124        C  0.21181897  0.87233766  0.61416883     0.08600
C125        C  0.19739162  0.85872351  0.61834627    -0.04500
H126        H  0.22180318  0.87417386  0.59899001     0.09200
H127        H  0.19268512  0.85792749  0.62580516     0.10400
Cu128      Cu  0.19292837  0.83678366  0.59031912     0.44200
Cu129      Cu  0.16754234  0.82261896  0.61296279     0.42000
Cu130      Cu  0.15489963  0.79600411  0.59069179     0.43900
N131        N  0.18500561  0.81997115  0.57835293    -0.33200
N132        N  0.17087735  0.80493082  0.57853730    -0.27400
C133        C  0.16938474  0.79671663  0.56997073    -0.03500
C134        C  0.18329747  0.80705660  0.56404243     0.08700
C135        C  0.19291331  0.82174182  0.56962218     0.02500
H136        H  0.15895614  0.78408159  0.56825049     0.10100
H137        H  0.20507302  0.83267143  0.56764279     0.09200
N138        N  0.14138215  0.78894531  0.60382799    -0.34600
N139        N  0.14588644  0.79839617  0.61194730    -0.26800
C140        C  0.13420958  0.78987041  0.61903682    -0.02100
C141        C  0.12175085  0.77431658  0.61518906     0.06600
C142        C  0.12679269  0.77424979  0.60551783     0.04600
H143        H  0.13485370  0.79465774  0.62645930     0.09800
H144        H  0.12017581  0.76444257  0.59998776     0.08600
N145        N  0.55456504  0.12888672  0.56927241    -0.35100
N146        N  0.52446990  0.11244706  0.58170949    -0.55700
N147        N  0.54148819  0.09903414  0.59419339    -0.35100
N148        N  0.57078489  0.11387119  0.58104018    -0.55700
C149        C  0.54358050  0.13163374  0.56386152     0.28500
C150        C  0.56763030  0.13165129  0.56324204     0.28500
C151        C  0.52555851  0.09054923  0.59804234     0.28500
C152        C  0.55026302  0.09181736  0.59790987     0.28500
C153        C  0.52043040  0.12253610  0.57634360     0.37100
C154        C  0.51320840  0.10621655  0.58927797     0.37100
C155        C  0.58392773  0.12382235  0.57496210     0.37100
C156        C  0.57731082  0.10872122  0.58839375     0.37100
C157        C  0.54979575  0.13633381  0.55431123    -0.20400
C158        C  0.56494436  0.13628623  0.55390712    -0.20400
C159        C  0.52424777  0.07790888  0.60439197    -0.20400
C160        C  0.53984279  0.07873758  0.60432950    -0.20400
C161        C  0.50642558  0.12255785  0.58045149    -0.21500
C162        C  0.50179828  0.11215835  0.58861719    -0.21500
C163        C  0.59883922  0.12483233  0.57840231    -0.21500
C164        C  0.59463573  0.11520795  0.58687889    -0.21500
C165        C  0.52857563  0.13091695  0.56745873    -0.16800
C166        C  0.58253512  0.13139365  0.56610982    -0.16800
C167        C  0.56767362  0.09733167  0.59608889    -0.16800
C168        C  0.51259971  0.09471677  0.59657696    -0.16800
H169        H  0.54405578  0.13955849  0.54827410     0.16100
H170        H  0.57317487  0.13953073  0.54749685     0.16100
H171        H  0.51327628  0.06916887  0.60875321     0.16100
H172        H  0.54316054  0.07073080  0.60862235     0.16100
H173        H  0.50009670  0.12923754  0.57779675     0.14400
H174        H  0.49122553  0.10930272  0.59350678     0.14400
H175        H  0.61142769  0.13168325  0.57512149     0.14400
H176        H  0.60334348  0.11313118  0.59135782     0.14400
H177        H  0.55425455  0.12737004  0.57690287     0.27600
H178        H  0.54662978  0.11029727  0.59019442     0.27600
N179        N  0.46637847  0.20449188  0.52251382    -0.25800
N180        N  0.47439349  0.21605439  0.52947614    -0.33700
C181        C  0.48195106  0.21036524  0.53576383     0.02500
C182        C  0.47854345  0.19436523  0.53262751     0.08600
C183        C  0.46866516  0.19110526  0.52415513    -0.04500
H184        H  0.48954417  0.21748000  0.54208727     0.09200
H185        H  0.46325948  0.17972692  0.51961544     0.10400
Cu186      Cu  0.47443692  0.23894165  0.52989238     0.44200
Cu187      Cu  0.45260960  0.20796394  0.51134123     0.42000
Cu188      Cu  0.45001935  0.24726805  0.51142359     0.43900
N189        N  0.47383945  0.26145567  0.52886288    -0.33200
N190        N  0.46502739  0.26468993  0.52226987    -0.27400
C191        C  0.46853874  0.28092007  0.52347267    -0.03500
C192        C  0.48025947  0.28824422  0.53113106     0.08700
C193        C  0.48313816  0.27542986  0.53439411     0.02500
H194        H  0.46349383  0.28710434  0.51884244     0.10100
H195        H  0.49157039  0.27620688  0.54030574     0.09200
N196        N  0.43869726  0.22809464  0.50081685    -0.34600
N197        N  0.43988754  0.21412010  0.50075767    -0.26800
C198        C  0.43237401  0.20511887  0.49251441    -0.02100
C199        C  0.42614748  0.21378944  0.48708789     0.06600
C200        C  0.43031547  0.22826532  0.49261437     0.04600
H201        H  0.43179798  0.19326686  0.49054381     0.09800
H202        H  0.42818430  0.23860069  0.49058735     0.08600
N203        N  0.55777734  0.42931356  0.57004833    -0.35100
N204        N  0.52781146  0.41164358  0.58277877    -0.55700
N205        N  0.54112353  0.44183732  0.59545692    -0.35100
N206        N  0.57206116  0.45858158  0.58354178    -0.55700
C207        C  0.55044815  0.41341983  0.56610569     0.28500
C208        C  0.57393910  0.43819348  0.56653673     0.28500
C209        C  0.52722965  0.43083560  0.60074696     0.28500
C210        C  0.55075492  0.45551416  0.60130580     0.28500
C211        C  0.52271772  0.40033361  0.57522287     0.37100
C212        C  0.51384450  0.40700553  0.58843287     0.37100
C213        C  0.58443927  0.46492705  0.57656151     0.37100
C214        C  0.57559699  0.47153777  0.58986985     0.37100
C215        C  0.56196459  0.41231214  0.55982895    -0.20400
C216        C  0.57676081  0.42792002  0.56009331    -0.20400
C217        C  0.52786052  0.43774130  0.61001780    -0.20400
C218        C  0.54265306  0.45331812  0.61035965    -0.20400
C219        C  0.50551764  0.38835742  0.57615762    -0.21500
C220        C  0.49989606  0.39259301  0.58451276    -0.21500
C221        C  0.59598744  0.48195157  0.57852000    -0.21500
C222        C  0.59044711  0.48611349  0.58695165    -0.21500
C223        C  0.53348475  0.40003597  0.56775125    -0.16800
C224        C  0.58614870  0.45541186  0.56877332    -0.16800
C225        C  0.56629056  0.47023004  0.59858954    -0.16800
C226        C  0.51351928  0.41515565  0.59729063    -0.16800
H227        H  0.55994515  0.40137866  0.55551170     0.16100
H228        H  0.58832261  0.43127485  0.55602555     0.16100
H229        H  0.51855283  0.43220225  0.61591246     0.16100
H230        H  0.54686249  0.46205654  0.61657168     0.16100
H231        H  0.49779870  0.37766750  0.57131971     0.14400
H232        H  0.48699272  0.38581006  0.58736979     0.14400
H233        H  0.60737637  0.49045389  0.57438661     0.14400
H234        H  0.59680676  0.49844163  0.59057167     0.14400
H235        H  0.55161044  0.43429175  0.57413209     0.27600
H236        H  0.54298233  0.44084048  0.58798110     0.27600
N237        N  0.78032709  0.51902482  0.52151631    -0.25800
N238        N  0.76873916  0.51155768  0.52853770    -0.33700
C239        C  0.77444950  0.50467856  0.53525799     0.02500
C240        C  0.79040624  0.50781863  0.53234624     0.08600
C241        C  0.79372850  0.51691318  0.52355740    -0.04500
H242        H  0.76724051  0.49744512  0.54164579     0.09200
H243        H  0.80503173  0.52166348  0.51899903     0.10400
Cu244      Cu  0.74522085  0.51008743  0.52852915     0.44200
Cu245      Cu  0.77673392  0.53144417  0.50956660     0.42000
Cu246      Cu  0.73603381  0.53191973  0.50976276     0.43900
N247        N  0.72203277  0.50920835  0.52746662    -0.33200
N248        N  0.71862721  0.51766325  0.52073774    -0.27400
C249        C  0.70266295  0.51475043  0.52221538    -0.03500
C250        C  0.69569947  0.50375688  0.53020404     0.08700
C251        C  0.70835274  0.50053452  0.53332310     0.02500
H252        H  0.69652063  0.52002411  0.51773251     0.10100
H253        H  0.70778691  0.49270229  0.53952469     0.09200
N254        N  0.75459468  0.54278297  0.49883876    -0.34600
N255        N  0.76905819  0.54249233  0.49867398    -0.26800
C256        C  0.77746655  0.54992018  0.49025509    -0.02100
C257        C  0.76785614  0.55511315  0.48483487     0.06600
C258        C  0.75346824  0.55038863  0.49055392     0.04600
H259        H  0.78945627  0.55095170  0.48811939     0.09800
H260        H  0.74285294  0.55225542  0.48884290     0.08600
N261        N  0.77078026  0.27149399  0.51494780    -0.25800
N262        N  0.76035819  0.26703785  0.52261928    -0.33700
C263        C  0.76639342  0.28010187  0.52905115     0.02500
C264        C  0.78140948  0.29339154  0.52527952     0.08600
C265        C  0.78387866  0.28746699  0.51634181    -0.04500
H266        H  0.76033408  0.27989129  0.53599682     0.09200
H267        H  0.79416061  0.29437395  0.51112465     0.10400
Cu268      Cu  0.73836660  0.24347150  0.52399303     0.44200
Cu269      Cu  0.76593620  0.25578171  0.50283493     0.42000
Cu270      Cu  0.72619976  0.21437016  0.50338696     0.43900
N271        N  0.71650544  0.21964337  0.52381318    -0.33200
N272        N  0.71178342  0.20903183  0.51620997    -0.27400
C273        C  0.69653457  0.19521533  0.51822530    -0.03500
C274        C  0.69146633  0.19722516  0.52757977     0.08700
C275        C  0.70449052  0.21285213  0.53088754     0.02500
H276        H  0.68961686  0.18459270  0.51320927     0.10100
H277        H  0.70489977  0.21919054  0.53776244     0.09200
N278        N  0.74348429  0.22297132  0.49174553    -0.34600
N279        N  0.75783078  0.23787230  0.49161586    -0.26800
C280        C  0.76626357  0.23923949  0.48317813    -0.02100
C281        C  0.75682528  0.22448593  0.47771088     0.06600
C282        C  0.74242530  0.21447520  0.48336157     0.04600
H283        H  0.77835659  0.25024653  0.48118177     0.09800
H284        H  0.73212556  0.20176344  0.48165095     0.08600
N285        N  0.85253472  0.42845852  0.56902587    -0.35100
N286        N  0.86816039  0.45735147  0.58241991    -0.55700
N287        N  0.87979641  0.43894627  0.59504367    -0.35100
N288        N  0.86290425  0.40942111  0.58217722    -0.55700
C289        C  0.84567271  0.43767190  0.56541108     0.28500
C290        C  0.84404118  0.41276957  0.56483476     0.28500
C291        C  0.88387583  0.45266760  0.60081257     0.28500
C292        C  0.88054595  0.42712348  0.60081338     0.28500
C293        C  0.86276024  0.46424367  0.57540426     0.37100
C294        C  0.87839037  0.47016302  0.58863691     0.37100
C295        C  0.85718242  0.39855936  0.57439650     0.37100
C296        C  0.87094222  0.40387224  0.58829593     0.37100
C297        C  0.83300991  0.42778584  0.55859919    -0.20400
C298        C  0.83192675  0.41211201  0.55828159    -0.20400
C299        C  0.88739148  0.44960599  0.61035083    -0.20400
C300        C  0.88528394  0.43347742  0.61035317    -0.20400
C301        C  0.86942791  0.48150028  0.57729348    -0.21500
C302        C  0.87948849  0.48528048  0.58556573    -0.21500
C303        C  0.86141260  0.38593021  0.57565312    -0.21500
C304        C  0.87005649  0.38925399  0.58447337    -0.21500
C305        C  0.85089937  0.45492877  0.56777791    -0.16800
C306        C  0.84724136  0.39915927  0.56647487    -0.16800
C307        C  0.87836771  0.41133533  0.59751671    -0.16800
C308        C  0.88538839  0.46820767  0.59758857    -0.16800
H309        H  0.82536853  0.43143492  0.55420277     0.16100
H310        H  0.82320229  0.40145036  0.55370131     0.16100
H311        H  0.89125252  0.45817093  0.61664064     0.16100
H312        H  0.88728790  0.42726666  0.61663603     0.16100
H313        H  0.86712266  0.49048030  0.57328870     0.14400
H314        H  0.88632561  0.49765451  0.58911706     0.14400
H315        H  0.85845496  0.37532188  0.57076401     0.14400
H316        H  0.87505222  0.38172167  0.58771123     0.14400
H317        H  0.86338002  0.43297805  0.57337823     0.27600
H318        H  0.87869615  0.43858427  0.58738839     0.27600
N319        N  0.69372462  0.04773738  0.66645382    -0.25800
N320        N  0.68962183  0.05973676  0.66525931    -0.33700
C321        C  0.69796458  0.07206032  0.67206626     0.02500
C322        C  0.70792890  0.06773562  0.67778828     0.08600
C323        C  0.70492001  0.05223800  0.67399929    -0.04500
H324        H  0.69725017  0.08360251  0.67259313     0.09200
H325        H  0.71052153  0.04479474  0.67650600     0.10400
Cu326      Cu  0.67354782  0.05945618  0.65414883     0.44200
Cu327      Cu  0.68454103  0.02602038  0.65754016     0.42000
Cu328      Cu  0.66047193  0.02585277  0.63612566     0.43900
N329        N  0.65704620  0.05585248  0.64248423    -0.33200
N330        N  0.65256749  0.04369883  0.63577542    -0.27400
C331        C  0.64159161  0.04439029  0.62934121    -0.03500
C332        C  0.63891648  0.05755774  0.63215261     0.08700
C333        C  0.64892607  0.06454894  0.64052690     0.02500
H334        H  0.63561369  0.03561568  0.62323560     0.10100
H335        H  0.65023765  0.07517929  0.64487333     0.09200
N336        N  0.66702004  0.00734118  0.63878083    -0.34600
N337        N  0.67515548  0.00681680  0.64679298    -0.26800
C338        C  0.67633747  0.99255893  0.64645889    -0.02100
C339        C  0.66877524  0.98387322  0.63774402     0.06600
C340        C  0.66302506  0.99365232  0.63310007     0.04600
H341        H  0.68238595  0.98888198  0.65208469     0.09800
H342        H  0.65598694  0.99077363  0.62621162     0.08600
N343        N  0.70074532  0.64772009  0.66424906    -0.25800
N344        N  0.69601824  0.63145770  0.66301885    -0.33700
C345        C  0.70660719  0.62794216  0.66814533     0.02500
C346        C  0.71861410  0.64267168  0.67290148     0.08600
C347        C  0.71447662  0.65496203  0.67025585    -0.04500
H348        H  0.70523455  0.61539557  0.66865108     0.09200
H349        H  0.72089868  0.66818901  0.67255400     0.10400
Cu350      Cu  0.67489657  0.61439001  0.65491094     0.44200
Cu351      Cu  0.68786849  0.65911877  0.65796864     0.42000
Cu352      Cu  0.64923061  0.63068778  0.64434893     0.43900
N353        N  0.65315318  0.59966838  0.64659964    -0.33200
N354        N  0.64367130  0.60552085  0.64274395    -0.27400
C355        C  0.63080611  0.59289104  0.63757676    -0.03500
C356        C  0.63229637  0.57840369  0.63818689     0.08700
C357        C  0.64662419  0.58322488  0.64399644     0.02500
H358        H  0.62140129  0.59434151  0.63341635     0.10100
H359        H  0.65199864  0.57541079  0.64616674     0.09200
N360        N  0.65795855  0.65657818  0.64652789    -0.34600
N361        N  0.67228195  0.66707340  0.65124034    -0.26800
C362        C  0.67460213  0.68298057  0.65094829    -0.02100
C363        C  0.66097476  0.68245023  0.64592739     0.06600
C364        C  0.65070158  0.66548918  0.64324187     0.04600
H365        H  0.68536681  0.69409396  0.65420566     0.09800
H366        H  0.63901683  0.66009245  0.63896922     0.08600
N367        N  0.63411486  0.84011018  0.61184252    -0.25800
N368        N  0.62890256  0.84361581  0.60348256    -0.33700
C369        C  0.63088286  0.85932435  0.60405461     0.02500
C370        C  0.63769453  0.86626147  0.61324019     0.08600
C371        C  0.63949422  0.85359594  0.61798836    -0.04500
H372        H  0.62818170  0.86545875  0.59801759     0.09200
H373        H  0.64452318  0.85414970  0.62533182     0.10400
Cu374      Cu  0.62004426  0.82744146  0.59137594     0.44200
Cu375      Cu  0.63479771  0.81751429  0.61407028     0.42000
Cu376      Cu  0.62090821  0.78844603  0.59273706     0.43900
N377        N  0.61140766  0.80961765  0.58007865    -0.33200
N378        N  0.61179837  0.79525943  0.58045249    -0.27400
C379        C  0.60500080  0.78641526  0.57203523    -0.03500
C380        C  0.60003986  0.79567900  0.56607429     0.08700
C381        C  0.60431289  0.81030144  0.57148331     0.02500
H382        H  0.60379561  0.77416647  0.57041857     0.10100
H383        H  0.60199170  0.82052166  0.56949782     0.09200
N384        N  0.63000960  0.78414891  0.60594072    -0.34600
N385        N  0.63509661  0.79447860  0.61370035    -0.26800
C386        C  0.64032259  0.78766970  0.62083634    -0.02100
C387        C  0.63845362  0.77231582  0.61740634     0.06600
C388        C  0.63178449  0.77059252  0.60794066     0.04600
H389        H  0.64538435  0.79364735  0.62792822     0.09800
H390        H  0.62817606  0.76009677  0.60285721     0.08600
O391        O  0.82357924  0.62858623  0.75142377    -0.71500
O392        O  0.79508259  0.63025144  0.72924005    -0.72400
O393        O  0.82562423  0.62925001  0.73028866    -0.61100
O394        O  0.79272349  0.62940742  0.75019944    -0.69500
O395        O  0.80739806  0.65763026  0.75073231    -0.69000
O396        O  0.84031537  0.65749567  0.73052786    -0.60300
O397        O  0.80964894  0.65849195  0.72962444    -0.72800
O398        O  0.83841921  0.65681750  0.75184220    -0.71600
Cu399      Cu  0.80878602  0.62843023  0.74030346     1.04600
Cu400      Cu  0.82450292  0.65860950  0.74072358     1.04300
C401        C  0.83547598  0.64239905  0.75521511     0.94700
C402        C  0.79790127  0.64458916  0.72583017     0.93900
C403        C  0.83785382  0.64331963  0.72698397     0.86000
C404        C  0.79468013  0.64345866  0.75358229     0.92300
O405        O  0.80286638  0.14376289  0.73345142    -0.71500
O406        O  0.83139523  0.17519635  0.75557943    -0.72400
O407        O  0.80093764  0.14295073  0.75443985    -0.61100
O408        O  0.83361690  0.17626341  0.73450772    -0.69500
O409        O  0.81836721  0.18919333  0.73409327    -0.69000
O410        O  0.78572623  0.15590239  0.75384396    -0.60300
O411        O  0.81606514  0.18799102  0.75507904    -0.72800
O412        O  0.78799909  0.15711269  0.73286658    -0.71600
Cu413      Cu  0.81775830  0.15909908  0.74449852     1.04600
Cu414      Cu  0.80153038  0.17299170  0.74394092     1.04300
C415        C  0.79081502  0.14545109  0.72971446     0.94700
C416        C  0.82815637  0.18649366  0.75890994     0.93900
C417        C  0.78817563  0.14419637  0.75733096     0.86000
C418        C  0.83116052  0.18805676  0.73115250     0.92300
O419        O  0.34963338  0.16400941  0.73082779    -0.71500
O420        O  0.35006535  0.19549547  0.75195175    -0.72400
O421        O  0.34848199  0.16344024  0.75178970    -0.61100
O422        O  0.35119491  0.19594589  0.73099053    -0.69500
O423        O  0.32298234  0.18275232  0.73045844    -0.69000
O424        O  0.32025064  0.15008108  0.75142304    -0.60300
O425        O  0.32180423  0.18223615  0.75164625    -0.72800
O426        O  0.32134400  0.15040612  0.73040245    -0.71600
Cu427      Cu  0.35078670  0.18014835  0.74141796     1.04600
Cu428      Cu  0.32058653  0.16591134  0.74096015     1.04300
C429        C  0.33550070  0.15225512  0.72725981     0.94700
C430        C  0.33606773  0.19394209  0.75514301     0.93900
C431        C  0.33405229  0.15158138  0.75490982     0.86000
C432        C  0.33752283  0.19455853  0.72738616     0.92300
N433        N  0.33448311  0.29200930  0.81748639    -0.25800
N434        N  0.35103209  0.29794880  0.81862149    -0.33700
C435        C  0.35596575  0.28969833  0.81232933     0.02500
C436        C  0.34184942  0.27787042  0.80694666     0.08600
C437        C  0.32848244  0.27976696  0.81048389    -0.04500
H438        H  0.36895844  0.29230420  0.81169834     0.09200
H439        H  0.31521342  0.27254107  0.80830381     0.10400
Cu440      Cu  0.36618079  0.31671890  0.82885367     0.44200
Cu441      Cu  0.32049160  0.30068670  0.82544664     0.42000
Cu442      Cu  0.34365017  0.33050467  0.84506220     0.43900
N443        N  0.37803009  0.33496311  0.83991665    -0.33200
N444        N  0.36969589  0.33960471  0.84603707    -0.27400
C445        C  0.38084330  0.35115005  0.85250186    -0.03500
C446        C  0.39700304  0.35403867  0.85028364     0.08700
C447        C  0.39473379  0.34357514  0.84225960     0.02500
H448        H  0.37744363  0.35708915  0.85833494     0.10100
H449        H  0.40444879  0.34201092  0.83855279     0.09200
N450        N  0.31828574  0.32222112  0.84174665    -0.34600
N451        N  0.30972451  0.31162839  0.83444100    -0.26800
C452        C  0.29397418  0.30974605  0.83401397    -0.02100
C453        C  0.29255385  0.31967137  0.84142233     0.06600
C454        C  0.30827587  0.32725430  0.84617824     0.04600
H455        H  0.28444068  0.30200986  0.82856147     0.09800
H456        H  0.31226165  0.33579311  0.85246908     0.08600
N457        N  0.92064500  0.28636673  0.82299936    -0.25800
N458        N  0.90779348  0.28888199  0.82506398    -0.33700
C459        C  0.89418458  0.27810794  0.81952272     0.02500
C460        C  0.89876063  0.26851367  0.81360299     0.08600
C461        C  0.91563340  0.27415176  0.81602501    -0.04500
H462        H  0.88204867  0.27771952  0.81953871     0.09200
H463        H  0.92372203  0.26969712  0.81294078     0.10400
Cu464      Cu  0.90996431  0.30793707  0.83473226     0.44200
Cu465      Cu  0.94466517  0.29964134  0.82959317     0.42000
Cu466      Cu  0.95259429  0.33553128  0.84473012     0.43900
N467        N  0.91653570  0.32918069  0.84372538    -0.33200
N468        N  0.93209839  0.33930709  0.84720327    -0.27400
C469        C  0.93209061  0.35165677  0.85274650    -0.03500
C470        C  0.91572260  0.34929856  0.85280479     0.08700
C471        C  0.90623999  0.33489246  0.84696772     0.02500
H472        H  0.94314423  0.36133723  0.85667589     0.10100
H473        H  0.89284038  0.32901394  0.84511661     0.09200
N474        N  0.97039946  0.32778021  0.84264726    -0.34600
N475        N  0.96753110  0.31451958  0.83715343    -0.26800
C476        C  0.98120847  0.31239432  0.83771100    -0.02100
C477        C  0.99324076  0.32487597  0.84391399     0.06600
C478        C  0.98590497  0.33440501  0.84686533     0.04600
H479        H  0.98209701  0.30220857  0.83409845     0.09800
H480        H  0.99138272  0.34533374  0.85176954     0.08600
N481        N  0.13376811  0.34786015  0.86945275    -0.25800
N482        N  0.13139049  0.35600962  0.87685421    -0.33700
C483        C  0.11683334  0.35619838  0.87534313     0.02500
C484        C  0.10952073  0.34774727  0.86656726     0.08600
C485        C  0.12062519  0.34257319  0.86304127    -0.04500
H486        H  0.11167538  0.36162239  0.88047298     0.09200
H487        H  0.11929823  0.33552029  0.85631224     0.10400
Cu488      Cu  0.14709816  0.36567871  0.88915082     0.44200
Cu489      Cu  0.15472552  0.34413551  0.86863535     0.42000
Cu490      Cu  0.18315683  0.35955142  0.88996628     0.43900
N491        N  0.16342051  0.37259376  0.90119762    -0.33200
N492        N  0.17673009  0.37035587  0.90147298    -0.27400
C493        C  0.18486474  0.37617734  0.91016456    -0.03500
C494        C  0.17622850  0.38236041  0.91571017     0.08700
C495        C  0.16264328  0.37980866  0.90974038     0.02500
H496        H  0.19647918  0.37626725  0.91213936     0.10100
H497        H  0.15277394  0.38279094  0.91145285     0.09200
N498        N  0.18717436  0.34832835  0.87768338    -0.34600
N499        N  0.17697269  0.34268456  0.86987914    -0.26800
C500        C  0.18355889  0.33642998  0.86324724    -0.02100
C501        C  0.19859816  0.33817399  0.86708598     0.06600
C502        C  0.20042352  0.34581544  0.87624653     0.04600
H503        H  0.17774161  0.33093015  0.85618507     0.09800
H504        H  0.21084536  0.34968569  0.88143154     0.08600
N505        N  0.54728653  0.12066600  0.91324966    -0.35100
N506        N  0.52033067  0.11059447  0.89876994    -0.55700
N507        N  0.53485053  0.09350412  0.88708794    -0.35100
N508        N  0.56265738  0.10498558  0.90109810    -0.55700
C509        C  0.54031157  0.13004995  0.91633525     0.28500
C510        C  0.56291989  0.12752832  0.91744730     0.28500
C511        C  0.52245290  0.09196626  0.88084080     0.28500
C512        C  0.54509364  0.08927318  0.88197851     0.28500
C513        C  0.51418857  0.11656075  0.90590478     0.37100
C514        C  0.50750777  0.10216498  0.89220793     0.37100
C515        C  0.57349183  0.11009319  0.90889125     0.37100
C516        C  0.56697001  0.09570632  0.89516207     0.37100
C517        C  0.55147757  0.14275848  0.92272574    -0.20400
C518        C  0.56576858  0.14123338  0.92338565    -0.20400
C519        C  0.52463741  0.08639147  0.87168147    -0.20400
C520        C  0.53881752  0.08459742  0.87241079    -0.20400
C521        C  0.49749556  0.11211598  0.90381771    -0.21500
C522        C  0.49321782  0.10291502  0.89517741    -0.21500
C523        C  0.58473760  0.10401677  0.90792145    -0.21500
C524        C  0.58074633  0.09508764  0.89919768    -0.21500
C525        C  0.52386040  0.12703303  0.91388080    -0.16800
C526        C  0.57454377  0.12151573  0.91637457    -0.16800
C527        C  0.55956859  0.08892176  0.88578880    -0.16800
C528        C  0.50865529  0.09450762  0.88330768    -0.16800
H529        H  0.54958317  0.15220288  0.92651941     0.16100
H530        H  0.57700215  0.14934397  0.92776069     0.16100
H531        H  0.51671519  0.08369443  0.86516182     0.16100
H532        H  0.54380022  0.08019939  0.86654486     0.16100
H533        H  0.48929202  0.11526375  0.90803933     0.14400
H534        H  0.48097884  0.09749845  0.89147860     0.14400
H535        H  0.59511326  0.10622639  0.91282692     0.14400
H536        H  0.58754718  0.08918504  0.89611606     0.14400
H537        H  0.54109824  0.10923425  0.90936572     0.27600
H538        H  0.53520760  0.09567228  0.89463780     0.27600
N539        N  0.75763036  0.26095286  0.96714693    -0.25800
N540        N  0.74505850  0.25705541  0.96083799    -0.33700
C541        C  0.74982103  0.27006014  0.95444182     0.02500
C542        C  0.76623310  0.28294424  0.95686500     0.08600
C543        C  0.77067510  0.27660226  0.96500997    -0.04500
H544        H  0.74197501  0.26986790  0.94834871     0.09200
H545        H  0.78242941  0.28286829  0.96920194     0.10400
Cu546      Cu  0.72225940  0.23397787  0.96127546     0.44200
Cu547      Cu  0.75652050  0.24441617  0.97813514     0.42000
Cu548      Cu  0.71961813  0.20148236  0.97838801     0.43900
N549        N  0.70158095  0.20938993  0.96231386    -0.33200
N550        N  0.70084881  0.19730774  0.96814935    -0.27400
C551        C  0.68621431  0.18261743  0.96634599    -0.03500
C552        C  0.67726924  0.18575526  0.95914473     0.08700
C553        C  0.68735629  0.20281113  0.95677921     0.02500
H554        H  0.68237510  0.17061255  0.97002214     0.10100
H555        H  0.68481278  0.20980347  0.95118630     0.09200
N556        N  0.73963211  0.21010744  0.98840118    -0.34600
N557        N  0.75298145  0.22573654  0.98830017    -0.26800
C558        C  0.76341934  0.22740618  0.99583081    -0.02100
C559        C  0.75635429  0.21210375  0.00095579     0.06600
C560        C  0.74122073  0.20143287  0.99602337     0.04600
H561        H  0.77508767  0.23910002  0.99758159     0.09800
H562        H  0.73202455  0.18831119  0.99779155     0.08600
N563        N  0.68843852  0.04092859  0.81737527    -0.25800
N564        N  0.68136006  0.05062067  0.81712256    -0.33700
C565        C  0.68948343  0.06301477  0.81035849     0.02500
C566        C  0.70242775  0.06118238  0.80619605     0.08600
C567        C  0.70141251  0.04705533  0.81084017    -0.04500
H568        H  0.68654172  0.07298282  0.80883509     0.09200
H569        H  0.70947920  0.04160301  0.80956042     0.10400
Cu570      Cu  0.66165930  0.04736199  0.82636140     0.44200
Cu571      Cu  0.67990020  0.01970973  0.82654547     0.42000
Cu572      Cu  0.64298018  0.01036151  0.84196042     0.43900
N573        N  0.64250723  0.04227951  0.83651934    -0.33200
N574        N  0.63514628  0.02833980  0.84202159    -0.27400
C575        C  0.62351770  0.02895619  0.84795290    -0.03500
C576        C  0.62377705  0.04415548  0.84619738     0.08700
C577        C  0.63598780  0.05227364  0.83890923     0.02500
H578        H  0.61603612  0.01945000  0.85347193     0.10100
H579        H  0.64001085  0.06464493  0.83566960     0.09200
N580        N  0.65438353  0.99538934  0.84145220    -0.34600
N581        N  0.66761312  0.99856431  0.83582285    -0.26800
C582        C  0.67114281  0.98588233  0.83700237    -0.02100
C583        C  0.65970039  0.97429132  0.84377743     0.06600
C584        C  0.64931952  0.98078119  0.84643651     0.04600
H585        H  0.68122814  0.98512566  0.83316907     0.09800
H586        H  0.63847224  0.97500123  0.85138863     0.08600
N587        N  0.69473377  0.64396572  0.81496615    -0.25800
N588        N  0.68912250  0.62739891  0.81545393    -0.33700
C589        C  0.69852004  0.62359862  0.80940841     0.02500
C590        C  0.71067292  0.63842625  0.80481448     0.08600
C591        C  0.70787140  0.65111364  0.80852989    -0.04500
H592        H  0.69625387  0.61081728  0.80821725     0.09200
H593        H  0.71481608  0.66454566  0.80668527     0.10400
Cu594      Cu  0.66847343  0.61013130  0.82386376     0.44200
Cu595      Cu  0.68365779  0.65582106  0.82278471     0.42000
Cu596      Cu  0.64510281  0.62622969  0.83654548     0.43900
N597        N  0.64768677  0.59496906  0.83281298    -0.33200
N598        N  0.63890284  0.60086674  0.83747671    -0.27400
C599        C  0.62682654  0.58830619  0.84306968    -0.03500
C600        C  0.62808618  0.57374709  0.84190121     0.08700
C601        C  0.64147008  0.57851609  0.83529827     0.02500
H602        H  0.61829821  0.58991608  0.84797391     0.10100
H603        H  0.64652921  0.57071679  0.83257909     0.09200
N604        N  0.65485911  0.65241452  0.83572018    -0.34600
N605        N  0.66899801  0.66329645  0.83100019    -0.26800
C606        C  0.67199723  0.67927533  0.83257298    -0.02100
C607        C  0.65905996  0.67836375  0.83851259     0.06600
C608        C  0.64847135  0.66112525  0.84033170     0.04600
H609        H  0.68280694  0.69068634  0.82961959     0.09800
H610        H  0.63723621  0.65532560  0.84498631     0.08600
N611        N  0.63286059  0.83431345  0.87213796    -0.25800
N612        N  0.62571215  0.83803214  0.87953651    -0.33700
C613        C  0.62631656  0.85285756  0.87757071     0.02500
C614        C  0.63420270  0.85885332  0.86849177     0.08600
C615        C  0.63825812  0.84677191  0.86528320    -0.04500
H616        H  0.62157618  0.85894862  0.88250203     0.09200
H617        H  0.64447023  0.84687369  0.85842173     0.10400
Cu618      Cu  0.61518925  0.82303917  0.89205382     0.44200
Cu619      Cu  0.63488116  0.81242458  0.87166249     0.42000
Cu620      Cu  0.61754105  0.78467651  0.89289721     0.43900
N621        N  0.60471423  0.80531633  0.90342707    -0.33200
N622        N  0.60546356  0.79113722  0.90362027    -0.27400
C623        C  0.59728158  0.78208257  0.91170440    -0.03500
C624        C  0.59108891  0.79099330  0.91694517     0.08700
C625        C  0.59607742  0.80570652  0.91143815     0.02500
H626        H  0.59573464  0.76975239  0.91349695     0.10100
H627        H  0.59379947  0.81605673  0.91314649     0.09200
N628        N  0.62960640  0.78011876  0.88127288    -0.34600
N629        N  0.63555132  0.78993083  0.87335923    -0.26800
C630        C  0.64165601  0.78285279  0.86699622    -0.02100
C631        C  0.63959264  0.76783633  0.87111549     0.06600
C632        C  0.63196316  0.76670090  0.88023363     0.04600
H633        H  0.64672481  0.78810744  0.85978184     0.09800
H634        H  0.62831281  0.75691689  0.88580098     0.08600
N635        N  0.83869042  0.42413162  0.91960955    -0.35100
N636        N  0.85438920  0.40970614  0.90712425    -0.55700
N637        N  0.87059327  0.44083204  0.89523196    -0.35100
N638        N  0.85360405  0.45465024  0.90714994    -0.55700
C639        C  0.83016685  0.40767307  0.92263153     0.28500
C640        C  0.82949342  0.43137797  0.92251573     0.28500
C641        C  0.87383662  0.43050450  0.88950784     0.28500
C642        C  0.87419364  0.45483208  0.88981819     0.28500
C643        C  0.84829926  0.39785592  0.91440764     0.37100
C644        C  0.86452744  0.40624307  0.90140364     0.37100
C645        C  0.84670151  0.45968700  0.91434452     0.37100
C646        C  0.86390267  0.46873597  0.90177826     0.37100
C647        C  0.81546545  0.40449001  0.92762618    -0.20400
C648        C  0.81508909  0.41947060  0.92759626    -0.20400
C649        C  0.87991636  0.43823472  0.88037504    -0.20400
C650        C  0.88014244  0.45355941  0.88057378    -0.20400
C651        C  0.85470131  0.38690172  0.91335911    -0.21500
C652        C  0.86479499  0.39206915  0.90506772    -0.21500
C653        C  0.85249828  0.47699239  0.91348435    -0.21500
C654        C  0.86344213  0.48273772  0.90556041    -0.21500
C655        C  0.83554361  0.39558470  0.92128300    -0.16800
C656        C  0.83419005  0.44866647  0.92117911    -0.16800
C657        C  0.87279859  0.46897851  0.89309431    -0.16800
C658        C  0.87246396  0.41482352  0.89249434    -0.16800
H659        H  0.80597064  0.39261100  0.93096002     0.16100
H660        H  0.80530419  0.42135936  0.93094076     0.16100
H661        H  0.88395818  0.43344432  0.87422555     0.16100
H662        H  0.88426696  0.46273909  0.87459282     0.16100
H663        H  0.85194794  0.37597361  0.91790560     0.14400
H664        H  0.87132468  0.38585851  0.90202018     0.14400
H665        H  0.84903269  0.48465078  0.91800819     0.14400
H666        H  0.87009895  0.49571356  0.90281396     0.14400
H667        H  0.85103575  0.43057474  0.91663026     0.27600
H668        H  0.86771454  0.43922582  0.90279984     0.27600
N669        N  0.76363782  0.50986730  0.96957954    -0.25800
N670        N  0.75603665  0.50914240  0.96109292    -0.33700
C671        C  0.76196764  0.50301210  0.95404767     0.02500
C672        C  0.77388712  0.49965162  0.95828924     0.08600
C673        C  0.77459927  0.50411883  0.96817612    -0.04500
H674        H  0.75747720  0.50063574  0.94646530     0.09200
H675        H  0.78254827  0.50336664  0.97391020     0.10400
Cu676      Cu  0.73658045  0.51464008  0.95970867     0.44200
Cu677      Cu  0.75837697  0.51866908  0.98249503     0.42000
Cu678      Cu  0.72220489  0.52611738  0.98185697     0.43900
N679        N  0.71360311  0.51424692  0.96062349    -0.33200
N680        N  0.70776537  0.51758151  0.96879596    -0.27400
C681        C  0.69161331  0.51405725  0.96713522    -0.03500
C682        C  0.68722769  0.50844629  0.95742132     0.08700
C683        C  0.70152341  0.50876347  0.95355725     0.02500
H684        H  0.68363247  0.51539463  0.97260048     0.10100
H685        H  0.70279453  0.50456231  0.94626439     0.09200
N686        N  0.73917682  0.53267725  0.99381014    -0.34600
N687        N  0.75186098  0.52939566  0.99401217    -0.26800
C688        C  0.75981190  0.53417016  0.00281730    -0.02100
C689        C  0.75190079  0.54088515  0.00849063     0.06600
C690        C  0.73892017  0.53986259  0.00252327     0.04600
H691        H  0.77061835  0.53284792  0.00492433     0.09800
H692        H  0.72963633  0.54354125  0.00449041     0.08600
N693        N  0.55128573  0.42798735  0.91449297    -0.35100
N694        N  0.56653016  0.45822586  0.90201368    -0.55700
N695        N  0.53767487  0.44181823  0.88842049    -0.35100
N696        N  0.52253105  0.41158635  0.90107937    -0.55700
C697        C  0.56700731  0.43707752  0.91858932     0.28500
C698        C  0.54481021  0.41154204  0.91731758     0.28500
C699        C  0.54549390  0.45824366  0.88527610     0.28500
C700        C  0.52090403  0.43466742  0.88605770     0.28500
C701        C  0.57535420  0.46470875  0.91053320     0.37100
C702        C  0.56958673  0.47173335  0.89630570     0.37100
C703        C  0.51796174  0.39835251  0.90733211     0.37100
C704        C  0.50935060  0.40677654  0.89474854     0.37100
C705        C  0.57048815  0.42636719  0.92419743    -0.20400
C706        C  0.55651047  0.41023732  0.92336019    -0.20400
C707        C  0.53339634  0.46177775  0.88146230    -0.20400
C708        C  0.51800416  0.44677034  0.88162190    -0.20400
C709        C  0.58343802  0.48234696  0.91042369    -0.21500
C710        C  0.57929347  0.48676567  0.90155004    -0.21500
C711        C  0.50176500  0.38510299  0.90497580    -0.21500
C712        C  0.49636026  0.39039316  0.89696158    -0.21500
C713        C  0.57777597  0.45494670  0.91781594    -0.16800
C714        C  0.52842683  0.39774726  0.91490051    -0.16800
C715        C  0.50813942  0.41745844  0.88759614    -0.16800
C716        C  0.56301994  0.47044035  0.88659495    -0.16800
H717        H  0.58185568  0.42979932  0.92849877     0.16100
H718        H  0.55510699  0.39884440  0.92684778     0.16100
H719        H  0.53540320  0.47401150  0.87897905     0.16100
H720        H  0.50594175  0.44512985  0.87906796     0.16100
H721        H  0.59146791  0.49110308  0.91613219     0.14400
H722        H  0.58306872  0.49960879  0.89920818     0.14400
H723        H  0.49452687  0.37289944  0.90865207     0.14400
H724        H  0.48405126  0.38317216  0.89337267     0.14400
H725        H  0.54479871  0.43311374  0.91081150     0.27600
H726        H  0.54379775  0.43555625  0.89120627     0.27600
N727        N  0.47524565  0.20636085  0.96482118    -0.25800
N728        N  0.48052725  0.21657582  0.95705576    -0.33700
C729        C  0.48482144  0.20938006  0.94977194     0.02500
C730        C  0.48224722  0.19383557  0.95309386     0.08600
C731        C  0.47619331  0.19232225  0.96270914    -0.04500
H732        H  0.49004046  0.21535367  0.94270360     0.09200
H733        H  0.47276138  0.18185157  0.96778445     0.10400
Cu734      Cu  0.48249306  0.24016575  0.95689242     0.44200
Cu735      Cu  0.46699874  0.21276500  0.97761046     0.42000
Cu736      Cu  0.46689354  0.25386898  0.97722989     0.43900
N737        N  0.48363141  0.26337008  0.95730468    -0.33200
N738        N  0.47764022  0.26855128  0.96461362    -0.27400
C739        C  0.47996419  0.28404763  0.96230612    -0.03500
C740        C  0.48794116  0.28876458  0.95314527     0.08700
C741        C  0.49005168  0.27534601  0.95022797     0.02500
H742        H  0.47637560  0.29141614  0.96699921     0.10100
H743        H  0.49561139  0.27420600  0.94338347     0.09200
N744        N  0.45695526  0.23584518  0.98852023    -0.34600
N745        N  0.45714392  0.22132484  0.98864897    -0.26800
C746        C  0.44950144  0.21275511  0.99696759    -0.02100
C747        C  0.44423698  0.22226508  0.00236781     0.06600
C748        C  0.44919548  0.23683944  0.99678060     0.04600
H749        H  0.44809358  0.20055356  0.99896958     0.09800
H750        H  0.44712193  0.24732260  0.99849607     0.08600
N751        N  0.97746603  0.66264776  0.83429242    -0.25800
N752        N  0.97832107  0.65403830  0.84195801    -0.33700
C753        C  0.99374090  0.66306707  0.84623164     0.02500
C754        C  0.00324374  0.67813059  0.84099986     0.08600
C755        C  0.99243158  0.67736755  0.83345332    -0.04500
H756        H  0.99751494  0.65903030  0.85282829     0.09200
H757        H  0.99516494  0.68674586  0.82773262     0.10400
Cu758      Cu  0.95886794  0.63018647  0.84631000     0.44200
Cu759      Cu  0.95570701  0.65415914  0.82559859     0.42000
Cu760      Cu  0.92118134  0.61111413  0.83146689     0.43900
N761        N  0.93896350  0.60549860  0.84858309    -0.33200
N762        N  0.92515456  0.59835427  0.84296578    -0.27400
C763        C  0.91479538  0.58225743  0.84605794    -0.03500
C764        C  0.92242986  0.57906187  0.85404615     0.08700
C765        C  0.93776495  0.59415149  0.85542993     0.02500
H766        H  0.90248438  0.57363289  0.84280852     0.10100
H767        H  0.94750758  0.59663745  0.86088125     0.09200
N768        N  0.91965679  0.62662483  0.82072369    -0.34600
N769        N  0.93205595  0.64222310  0.81857208    -0.26800
C770        C  0.92669957  0.64857368  0.81129139    -0.02100
C771        C  0.91012901  0.63638422  0.80874365     0.06600
C772        C  0.90613527  0.62265584  0.81489316     0.04600
H773        H  0.93427078  0.66121410  0.80817820     0.09800
H774        H  0.89435767  0.61051104  0.81503881     0.08600
N775        N  0.31045193  0.00838243  0.83336497    -0.25800
N776        N  0.32094338  0.00469992  0.83814205    -0.33700
C777        C  0.31191525  0.98900639  0.84203005     0.02500
C778        C  0.29493307  0.98258421  0.83966059     0.08600
C779        C  0.29439193  0.99521014  0.83421502    -0.04500
H780        H  0.31734781  0.98267893  0.84620045     0.09200
H781        H  0.28330742  0.99457926  0.83075578     0.10400
Cu782      Cu  0.34703656  0.02086672  0.83927121     0.44200
Cu783      Cu  0.31875645  0.03030402  0.82512485     0.42000
Cu784      Cu  0.36470879  0.06060178  0.82654394     0.43900
N785        N  0.37242650  0.03961218  0.84050220    -0.33200
N786        N  0.37906276  0.05435247  0.83579619    -0.27400
C787        C  0.39561026  0.06396973  0.83835737    -0.03500
C788        C  0.39954959  0.05484796  0.84506488     0.08700
C789        C  0.38449348  0.03944027  0.84621767     0.02500
H790        H  0.40398103  0.07683327  0.83574835     0.10100
H791        H  0.38240222  0.02883767  0.85086547     0.09200
N792        N  0.34766079  0.06388134  0.81784864    -0.34600
N793        N  0.33113613  0.05271869  0.81716759    -0.26800
C794        C  0.32398296  0.05847629  0.81065131    -0.02100
C795        C  0.33656419  0.07410743  0.80717019     0.06600
C796        C  0.35140127  0.07717837  0.81188328     0.04600
H797        H  0.31058300  0.05184896  0.80869078     0.09800
H798        H  0.36404912  0.08810498  0.81090679     0.08600
N799        N  0.18308067  0.84358565  0.86894961    -0.25800
N800        N  0.19378949  0.84814740  0.87647714    -0.33700
C801        C  0.20770286  0.86317469  0.87445591     0.02500
C802        C  0.20587593  0.86835254  0.86509927     0.08600
C803        C  0.18997470  0.85559603  0.86185212    -0.04500
H804        H  0.21831398  0.86976766  0.87951187     0.09200
H805        H  0.18404295  0.85473268  0.85475617     0.10400
Cu806      Cu  0.18978192  0.83340059  0.88888990     0.44200
Cu807      Cu  0.16033763  0.82066186  0.86872701     0.42000
Cu808      Cu  0.15312659  0.79155587  0.88980785     0.43900
N809        N  0.18468935  0.81717316  0.90070728    -0.33200
N810        N  0.17118850  0.80169655  0.90124393    -0.27400
C811        C  0.17178947  0.79460052  0.90991337    -0.03500
C812        C  0.18646479  0.80619979  0.91500499     0.08700
C813        C  0.19424521  0.82034393  0.90889768     0.02500
H814        H  0.16244970  0.78182521  0.91223143     0.10100
H815        H  0.20595810  0.83219779  0.91030662     0.09200
N816        N  0.13728736  0.78558338  0.87735453    -0.34600
N817        N  0.13989079  0.79610987  0.86989745    -0.26800
C818        C  0.12717356  0.78830612  0.86326216    -0.02100
C819        C  0.11589715  0.77208275  0.86668147     0.06600
C820        C  0.12275383  0.77079586  0.87562134     0.04600
H821        H  0.12606187  0.79421715  0.85655697     0.09800
H822        H  0.11757560  0.75988881  0.88052659     0.08600
N823        N  0.00070908  0.32703022  0.33514790    -0.25800
N824        N  0.99973693  0.33720042  0.34181579    -0.33700
C825        C  0.98458280  0.32887931  0.34641127     0.02500
C826        C  0.97529729  0.31262002  0.34244563     0.08600
C827        C  0.98600501  0.31192047  0.33530910    -0.04500
H828        H  0.98085860  0.33430840  0.35236508     0.09200
H829        H  0.98332024  0.30131462  0.33049757     0.10400
Cu830      Cu  0.01861219  0.36201984  0.34468518     0.44200
Cu831      Cu  0.02232704  0.33407231  0.32642852     0.42000
Cu832      Cu  0.05752900  0.37702972  0.33164018     0.43900
N833        N  0.03903450  0.38645866  0.34644427    -0.33200
N834        N  0.05352225  0.39211246  0.34158454    -0.27400
C835        C  0.06428301  0.40840969  0.34422360    -0.03500
C836        C  0.05615710  0.41325293  0.35112215     0.08700
C837        C  0.04013374  0.39894828  0.35231898     0.02500
H838        H  0.07712727  0.41604211  0.34140071     0.10100
H839        H  0.02986392  0.39775234  0.35696521     0.09200
N840        N  0.05910606  0.36016123  0.32190170    -0.34600
N841        N  0.04637754  0.34471155  0.31975341    -0.26800
C842        C  0.05178673  0.33768573  0.31287337    -0.02100
C843        C  0.06876035  0.34923641  0.31066544     0.06600
C844        C  0.07288823  0.36329336  0.31655437     0.04600
H845        H  0.04395626  0.32509063  0.30973812     0.09800
H846        H  0.08491151  0.37520458  0.31672834     0.08600
N847        N  0.66444354  0.98479497  0.33500596    -0.25800
N848        N  0.65507038  0.98418102  0.34266294    -0.33700
C849        C  0.66402653  0.99816844  0.34827842     0.02500
C850        C  0.67986725  0.00826210  0.34395016     0.08600
C851        C  0.67962600  0.99932333  0.33552585    -0.04500
H852        H  0.65926799  0.00065847  0.35504488     0.09200
H853        H  0.68958464  0.00319065  0.33003704     0.10400
Cu854      Cu  0.63018985  0.96502699  0.34495176     0.44200
Cu855      Cu  0.65617149  0.96574508  0.32424253     0.42000
Cu856      Cu  0.61259430  0.93104808  0.32709778     0.43900
N857        N  0.60494623  0.94581742  0.34487489    -0.33200
N858        N  0.59847780  0.93326838  0.33834307    -0.27400
C859        C  0.58165986  0.92331800  0.34000819    -0.03500
C860        C  0.57730837  0.92998664  0.34797477     0.08700
C861        C  0.59242544  0.94426295  0.35086298     0.02500
H862        H  0.57328130  0.91211599  0.33569663     0.10100
H863        H  0.59416565  0.95321027  0.35668255     0.09200
N864        N  0.62868660  0.93201382  0.31601935    -0.34600
N865        N  0.64468502  0.94443783  0.31497989    -0.26800
C866        C  0.65176156  0.94049069  0.30740856    -0.02100
C867        C  0.63953520  0.92494295  0.30347398     0.06600
C868        C  0.62508169  0.91999584  0.30911346     0.04600
H869        H  0.66488919  0.94823066  0.30504423     0.09800
H870        H  0.61303133  0.90816407  0.30853362     0.08600
N871        N  0.83215593  0.20074938  0.36687850    -0.25800
N872        N  0.83431265  0.21131875  0.37421565    -0.33700
C873        C  0.84951514  0.22556328  0.37327445     0.02500
C874        C  0.85753305  0.22396858  0.36498147     0.08600
C875        C  0.84609858  0.20807333  0.36106400    -0.04500
H876        H  0.85431328  0.23624092  0.37834148     0.09200
H877        H  0.84797638  0.20198932  0.35467808     0.10400
Cu878      Cu  0.81770097  0.20630389  0.38575626     0.44200
Cu879      Cu  0.81090060  0.17650323  0.36550960     0.42000
Cu880      Cu  0.78177299  0.16526778  0.38657992     0.43900
N881        N  0.80033499  0.19861164  0.39710547    -0.33200
N882        N  0.78668336  0.18327547  0.39738673    -0.27400
C883        C  0.77793493  0.18175677  0.40571908    -0.03500
C884        C  0.78665630  0.19691628  0.41101248     0.08700
C885        C  0.80082820  0.20729309  0.40527058     0.02500
H886        H  0.76615146  0.17040165  0.40772679     0.10100
H887        H  0.81110928  0.21999334  0.40700145     0.09200
N888        N  0.77915903  0.14880884  0.37525905    -0.34600
N889        N  0.78927963  0.15269234  0.36746328    -0.26800
C890        C  0.78344679  0.13877415  0.36163547    -0.02100
C891        C  0.76910729  0.12552959  0.36608568     0.06600
C892        C  0.76679336  0.13242708  0.37466273     0.04600
H893        H  0.78940241  0.13826693  0.35479785     0.09800
H894        H  0.75668284  0.12609146  0.38005126     0.08600
N895        N  0.28071954  0.33941099  0.31749498    -0.25800
N896        N  0.28549250  0.35577944  0.31822833    -0.33700
C897        C  0.27563243  0.35907216  0.31224630     0.02500
C898        C  0.26414939  0.34411780  0.30747300     0.08600
C899        C  0.26779226  0.33192394  0.31094767    -0.04500
H900        H  0.27696025  0.37154308  0.31130689     0.09200
H901        H  0.26141426  0.31854968  0.30895928     0.10400
Cu902      Cu  0.30527944  0.37334759  0.32710852     0.44200
Cu903      Cu  0.29171860  0.32773200  0.32542127     0.42000
Cu904      Cu  0.32773882  0.35677890  0.34049969     0.43900
N905        N  0.32534089  0.38812298  0.33665592    -0.33200
N906        N  0.33374029  0.38197341  0.34150922    -0.27400
C907        C  0.34578939  0.39436227  0.34719401    -0.03500
C908        C  0.34492741  0.40907471  0.34589116     0.08700
C909        C  0.33177871  0.40461667  0.33915119     0.02500
H910        H  0.35421485  0.39261461  0.35212104     0.10100
H911        H  0.32723093  0.41274296  0.33624561     0.09200
N912        N  0.31908736  0.33092995  0.33933754    -0.34600
N913        N  0.30569064  0.32009033  0.33404990    -0.26800
C914        C  0.30338878  0.30428799  0.33516620    -0.02100
C915        C  0.31608657  0.30533597  0.34138030     0.06600
C916        C  0.32574891  0.32241456  0.34387312     0.04600
H917        H  0.29341901  0.29296298  0.33158043     0.09800
H918        H  0.33670364  0.32823682  0.34875825     0.08600
N919        N  0.31657914  0.98780597  0.33032613    -0.25800
N920        N  0.33027332  0.99115233  0.33554127    -0.33700
C921        C  0.33565381  0.00580923  0.34057895     0.02500
C922        C  0.32480621  0.01205406  0.33848708     0.08600
C923        C  0.31283474  0.00024529  0.33195715    -0.04500
H924        H  0.34645264  0.01129397  0.34558426     0.09200
H925        H  0.30225955  0.00072395  0.32856430     0.10400
Cu926      Cu  0.34043365  0.97508217  0.33590162     0.44200
Cu927      Cu  0.30379179  0.96624327  0.32130690     0.42000
Cu928      Cu  0.32070545  0.93700730  0.32061413     0.43900
N929        N  0.34690640  0.95611734  0.33644242    -0.33200
N930        N  0.33966191  0.94212116  0.33097439    -0.27400
C931        C  0.34564368  0.93185642  0.33384146    -0.03500
C932        C  0.35722112  0.93975127  0.34152046     0.08700
C933        C  0.35772806  0.95518064  0.34287667     0.02500
H934        H  0.34121497  0.91922707  0.33086746     0.10100
H935        H  0.36515835  0.96496752  0.34827135     0.09200
N936        N  0.29997447  0.93379032  0.31230341    -0.34600
N937        N  0.29349877  0.94401368  0.31276803    -0.26800
C938        C  0.27949722  0.93759399  0.30697495    -0.02100
C939        C  0.27710755  0.92269881  0.30260027     0.06600
C940        C  0.29037794  0.92074203  0.30614520     0.04600
H941        H  0.27169508  0.94341731  0.30598256     0.09800
H942        H  0.29261622  0.91030620  0.30460753     0.08600
N943        N  0.33921966  0.14482455  0.37200702    -0.25800
N944        N  0.34285559  0.13949934  0.38029681    -0.33700
C945        C  0.34115086  0.12405651  0.37872235     0.02500
C946        C  0.33629144  0.11936244  0.36896693     0.08600
C947        C  0.33525353  0.13290025  0.36492631    -0.04500
H948        H  0.34362075  0.11692072  0.38425191     0.09200
H949        H  0.33161893  0.13391007  0.35742999     0.10400
Cu950      Cu  0.35056479  0.15335992  0.39344753     0.44200
Cu951      Cu  0.33927537  0.16785927  0.37073095     0.42000
Cu952      Cu  0.34828317  0.19154878  0.39374812     0.43900
N953        N  0.35873977  0.17010564  0.40541231    -0.33200
N954        N  0.35755796  0.18403894  0.40556346    -0.27400
C955        C  0.36432928  0.19254794  0.41405755    -0.03500
C956        C  0.37025955  0.18363752  0.41956948     0.08700
C957        C  0.36642268  0.16942511  0.41379622     0.02500
H958        H  0.36491330  0.20440808  0.41599053     0.10100
H959        H  0.36949336  0.15957169  0.41536186     0.09200
N960        N  0.34175956  0.19885213  0.38068889    -0.34600
N961        N  0.33881467  0.19060184  0.37218253    -0.26800
C962        C  0.33551709  0.19921569  0.36520428    -0.02100
C963        C  0.33646507  0.21360470  0.36954274     0.06600
C964        C  0.34039330  0.21280829  0.37938042     0.04600
H965        H  0.33288198  0.19538242  0.35751947     0.09800
H966        H  0.34198474  0.22160918  0.38525412     0.08600
N967        N  0.42800215  0.86540881  0.41416513    -0.35100
N968        N  0.45630211  0.87618069  0.40055431    -0.55700
N969        N  0.44160175  0.89134783  0.38760959    -0.35100
N970        N  0.41245068  0.87903530  0.40068127    -0.55700
C971        C  0.43515010  0.85647008  0.41774648     0.28500
C972        C  0.41200275  0.85815674  0.41789219     0.28500
C973        C  0.45392792  0.89195761  0.38168152     0.28500
C974        C  0.43064816  0.89343801  0.38174205     0.28500
C975        C  0.46214314  0.87061793  0.40806736     0.37100
C976        C  0.46947611  0.88460950  0.39421952     0.37100
C977        C  0.40172280  0.87494715  0.40847255     0.37100
C978        C  0.40887673  0.88858401  0.39450147     0.37100
C979        C  0.42374336  0.84375182  0.42404180    -0.20400
C980        C  0.40912419  0.84472394  0.42407356    -0.20400
C981        C  0.45090487  0.89468104  0.37196164    -0.20400
C982        C  0.43619721  0.89557524  0.37199636    -0.20400
C983        C  0.47910963  0.87551241  0.40650609    -0.21500
C984        C  0.48380537  0.88449920  0.39776676    -0.21500
C985        C  0.39132304  0.88196697  0.40726380    -0.21500
C986        C  0.39589168  0.89065857  0.39842588    -0.21500
C987        C  0.45185774  0.85974739  0.41575286    -0.16800
C988        C  0.40006903  0.86361727  0.41616017    -0.16800
C989        C  0.41619812  0.89421117  0.38500490    -0.16800
C990        C  0.46827709  0.89093508  0.38484677    -0.16800
H991        H  0.42566185  0.83461993  0.42817781     0.16100
H992        H  0.39765765  0.83639423  0.42819249     0.16100
H993        H  0.45851419  0.89590509  0.36550152     0.16100
H994        H  0.43029051  0.89760554  0.36556621     0.16100
H995        H  0.48715892  0.87263287  0.41108188     0.14400
H996        H  0.49621396  0.88990985  0.39428597     0.14400
H997        H  0.38128340  0.88068753  0.41215719     0.14400
H998        H  0.39008299  0.89743888  0.39517298     0.14400
H999        H  0.43414531  0.87669194  0.41014223     0.27600
H1000       H  0.44171125  0.89134813  0.39530669     0.27600
N1001       N  0.49973702  0.77849886  0.46534317    -0.25800
N1002       N  0.49197616  0.76701751  0.45828415    -0.33700
C1003       C  0.48528631  0.77304952  0.45166316     0.02500
C1004       C  0.48884495  0.78903787  0.45472066     0.08600
C1005       C  0.49797150  0.79213143  0.46345190    -0.04500
H1006       H  0.47827898  0.76624215  0.44511070     0.09200
H1007       H  0.50326447  0.80355320  0.46795440     0.10400
Cu1008     Cu  0.49040790  0.74353539  0.45774839     0.44200
Cu1009     Cu  0.51259887  0.77493084  0.47695068     0.42000
Cu1010     Cu  0.51171261  0.73384389  0.47645100     0.43900
N1011       N  0.49025962  0.72073293  0.45823345    -0.33200
N1012       N  0.49864509  0.71724747  0.46497069    -0.27400
C1013       C  0.49670689  0.70179108  0.46305168    -0.03500
C1014       C  0.48638259  0.69524682  0.45478502     0.08700
C1015       C  0.48251683  0.70754641  0.45192817     0.02500
H1016       H  0.50224172  0.69573820  0.46738833     0.10100
H1017       H  0.47494798  0.70710636  0.44560713     0.09200
N1018       N  0.52289633  0.75202490  0.48748551    -0.34600
N1019       N  0.52321766  0.76678301  0.48771711    -0.26800
C1020       C  0.53120740  0.77518963  0.49603033    -0.02100
C1021       C  0.53617586  0.76526267  0.50125483     0.06600
C1022       C  0.53069944  0.75068657  0.49561310     0.04600
H1023       H  0.53339246  0.78768993  0.49804769     0.09800
H1024       H  0.53203608  0.73975530  0.49733892     0.08600
N1025       N  0.12461004  0.56612138  0.41589694    -0.35100
N1026       N  0.11066263  0.58126334  0.40251673    -0.55700
N1027       N  0.09701035  0.55138846  0.38981416    -0.35100
N1028       N  0.11255166  0.53703278  0.40268065    -0.55700
C1029       C  0.13234071  0.58229136  0.41940768     0.28500
C1030       C  0.13336489  0.55878476  0.41946181     0.28500
C1031       C  0.09516060  0.56235234  0.38382737     0.28500
C1032       C  0.09563192  0.53850700  0.38406556     0.28500
C1033       C  0.11549159  0.59256282  0.41006445     0.37100
C1034       C  0.10134552  0.58503249  0.39627880     0.37100
C1035       C  0.11787186  0.53127457  0.41035713     0.37100
C1036       C  0.10295936  0.52337121  0.39684168     0.37100
C1037       C  0.14588809  0.58510091  0.42547940    -0.20400
C1038       C  0.14660893  0.57032275  0.42545278    -0.20400
C1039       C  0.09233648  0.55622961  0.37418444    -0.20400
C1040       C  0.09261376  0.54117378  0.37433669    -0.20400
C1041       C  0.10922814  0.60356374  0.40861178    -0.21500
C1042       C  0.10015075  0.59870599  0.39992697    -0.21500
C1043       C  0.11166448  0.51391744  0.40940019    -0.21500
C1044       C  0.10213000  0.50888008  0.40087117    -0.21500
C1045       C  0.12711083  0.59436551  0.41759049    -0.16800
C1046       C  0.12924436  0.54171004  0.41783877    -0.16800
C1047       C  0.09637577  0.52409728  0.38745194    -0.16800
C1048       C  0.09529237  0.57737548  0.38689992    -0.16800
H1049       H  0.15440358  0.59658462  0.42954150     0.16100
H1050       H  0.15582222  0.56831264  0.42944219     0.16100
H1051       H  0.09028603  0.56200424  0.36770124     0.16100
H1052       H  0.09082372  0.53312523  0.36799416     0.16100
H1053       H  0.11131033  0.61425225  0.41318786     0.14400
H1054       H  0.09379072  0.60485660  0.39655868     0.14400
H1055       H  0.11390198  0.50577171  0.41428997     0.14400
H1056       H  0.09560108  0.49605451  0.39788374     0.14400
H1057       H  0.11306992  0.55995841  0.41210491     0.27600
H1058       H  0.09745461  0.55173848  0.39750773     0.27600
N1059       N  0.26996092  0.78470273  0.46567551    -0.25800
N1060       N  0.26560810  0.77389082  0.45819633    -0.33700
C1061       C  0.27863844  0.77961970  0.45177999     0.02500
C1062       C  0.29202255  0.79478627  0.45537016     0.08600
C1063       C  0.28599875  0.79765504  0.46420327    -0.04500
H1064       H  0.27820806  0.77325094  0.44491727     0.09200
H1065       H  0.29279909  0.80820328  0.46927833     0.10400
Cu1066     Cu  0.24236345  0.75167107  0.45692298     0.44200
Cu1067     Cu  0.25364613  0.78107392  0.47743589     0.42000
Cu1068     Cu  0.21232488  0.74194805  0.47679653     0.43900
N1069       N  0.21854554  0.73000153  0.45727452    -0.33200
N1070       N  0.20762278  0.72625511  0.46463767    -0.27400
C1071       C  0.19348289  0.71124155  0.46272003    -0.03500
C1072       C  0.19559682  0.70535457  0.45367866     0.08700
C1073       C  0.21163003  0.71756290  0.45043242     0.02500
H1074       H  0.18240991  0.70519544  0.46749377     0.10100
H1075       H  0.21793052  0.71731745  0.44367759     0.09200
N1076       N  0.21968889  0.76032413  0.48776924    -0.34600
N1077       N  0.23468202  0.77454833  0.48802859    -0.26800
C1078       C  0.23510238  0.78388692  0.49589244    -0.02100
C1079       C  0.21959560  0.77517608  0.50080591     0.06600
C1080       C  0.21018616  0.76025011  0.49543538     0.04600
H1081       H  0.24574397  0.79635293  0.49769813     0.09800
H1082       H  0.19734099  0.75004548  0.49694887     0.08600
N1083       N  0.41859936  0.56265974  0.41049259    -0.35100
N1084       N  0.40409902  0.53153197  0.39898541    -0.55700
N1085       N  0.43512800  0.54627442  0.38688280    -0.35100
N1086       N  0.45030947  0.57661468  0.39911741    -0.55700
C1087       C  0.40472189  0.55244678  0.41605515     0.28500
C1088       C  0.42922094  0.57613333  0.41620474     0.28500
C1089       C  0.42699628  0.53006667  0.38343540     0.28500
C1090       C  0.45141160  0.55393721  0.38352861     0.28500
C1091       C  0.39005957  0.52829049  0.40423174     0.37100
C1092       C  0.39874841  0.51963854  0.39174301     0.37100
C1093       C  0.45366808  0.59056869  0.40445293     0.37100
C1094       C  0.46240059  0.58197222  0.39200090     0.37100
C1095       C  0.40645142  0.55960419  0.42536123    -0.20400
C1096       C  0.42186107  0.57457703  0.42544762    -0.20400
C1097       C  0.43820803  0.52743117  0.37772782    -0.20400
C1098       C  0.45361303  0.54249397  0.37779029    -0.20400
C1099       C  0.37575646  0.51417713  0.40037753    -0.21500
C1100       C  0.38125374  0.50868068  0.39247306    -0.21500
C1101       C  0.46809849  0.60481342  0.40079916    -0.21500
C1102       C  0.47358746  0.59937677  0.39288295    -0.21500
C1103       C  0.39015356  0.53727152  0.41281784    -0.16800
C1104       C  0.44475591  0.59037846  0.41306602    -0.16800
C1105       C  0.46402074  0.57125274  0.38502320    -0.16800
C1106       C  0.40947728  0.51793435  0.38477490    -0.16800
H1107       H  0.39747169  0.55463351  0.43144404     0.16100
H1108       H  0.42691266  0.58337698  0.43161317     0.16100
H1109       H  0.43551872  0.51590518  0.37382111     0.16100
H1110       H  0.46507190  0.54481247  0.37395078     0.16100
H1111       H  0.36274477  0.50836269  0.40302904     0.14400
H1112       H  0.37327265  0.49778745  0.38782866     0.14400
H1113       H  0.47420991  0.61774519  0.40361044     0.14400
H1114       H  0.48465905  0.60731767  0.38836406     0.14400
H1115       H  0.41983843  0.56158366  0.40292096     0.27600
H1116       H  0.42933249  0.55226940  0.39032864     0.27600
N1117       N  0.20252665  0.48451416  0.46688823    -0.25800
N1118       N  0.21490833  0.49349129  0.46053075    -0.33700
C1119       C  0.21045281  0.50267864  0.45476758     0.02500
C1120       C  0.19440020  0.49933423  0.45758885     0.08600
C1121       C  0.18969824  0.48769142  0.46529923    -0.04500
H1122       H  0.21813658  0.51076287  0.44874620     0.09200
H1123       H  0.17787482  0.48195952  0.46943423     0.10400
Cu1124     Cu  0.23687332  0.49217733  0.45962207     0.44200
Cu1125     Cu  0.20447791  0.46858495  0.47719240     0.42000
Cu1126     Cu  0.24470230  0.46662080  0.47676978     0.43900
N1127       N  0.25803657  0.48942588  0.45884276    -0.33200
N1128       N  0.26143571  0.48023870  0.46504261    -0.27400
C1129       C  0.27633534  0.48141271  0.46224458    -0.03500
C1130       C  0.28237962  0.49171704  0.45383435     0.08700
C1131       C  0.27038384  0.49654368  0.45199993     0.02500
H1132       H  0.28217496  0.47503613  0.46594646     0.10100
H1133       H  0.27066921  0.50489040  0.44618201     0.09200
N1134       N  0.22497196  0.45453705  0.48731300    -0.34600
N1135       N  0.21070328  0.45523781  0.48726446    -0.26800
C1136       C  0.20119519  0.44678273  0.49517151    -0.02100
C1137       C  0.20975229  0.44042098  0.50058035     0.06600
C1138       C  0.22475929  0.44551034  0.49532883     0.04600
H1139       H  0.18899910  0.44561546  0.49691783     0.09800
H1140       H  0.23508829  0.44338917  0.49739378     0.08600
N1141       N  0.63909618  0.69723951  0.31561306    -0.25800
N1142       N  0.62239700  0.69090820  0.31586579    -0.33700
C1143       C  0.61834027  0.70045041  0.31011508     0.02500
C1144       C  0.63317640  0.71346412  0.30595081     0.08600
C1145       C  0.64609179  0.71097831  0.30963425    -0.04500
H1146       H  0.60549845  0.69817660  0.30922413     0.09200
H1147       H  0.65957298  0.71837006  0.30796837     0.10400
Cu1148     Cu  0.60564435  0.66996311  0.32419784     0.44200
Cu1149     Cu  0.65156765  0.68682303  0.32337457     0.42000
Cu1150     Cu  0.62391626  0.65033760  0.33884621     0.43900
N1151       N  0.59179207  0.65096212  0.33442441    -0.33200
N1152       N  0.59857871  0.64380039  0.33989269    -0.27400
C1153       C  0.58668223  0.63263321  0.34615922    -0.03500
C1154       C  0.57167547  0.63283074  0.34458137     0.08700
C1155       C  0.57539876  0.64461774  0.33708470     0.02500
H1156       H  0.58896382  0.62533941  0.35167391     0.10100
H1157       H  0.56690497  0.64846010  0.33386711     0.09200
N1158       N  0.64965390  0.65928093  0.33681789    -0.34600
N1159       N  0.65993682  0.67288168  0.33149594    -0.26800
C1160       C  0.67599763  0.67580344  0.33236842    -0.02100
C1161       C  0.67566754  0.66330117  0.33841569     0.06600
C1162       C  0.65879189  0.65304144  0.34107354     0.04600
H1163       H  0.68709249  0.68631838  0.32893974     0.09800
H1164       H  0.65362642  0.64225237  0.34607097     0.08600
N1165       N  0.99810981  0.67472401  0.33190143    -0.25800
N1166       N  0.99704766  0.66330157  0.33839021    -0.33700
C1167       C  0.98213226  0.65676363  0.34325284     0.02500
C1168       C  0.97319558  0.66428364  0.33963662     0.08600
C1169       C  0.98368249  0.67558004  0.33240230    -0.04500
H1170       H  0.97804750  0.64711729  0.34896291     0.09200
H1171       H  0.98118683  0.68407017  0.32800103     0.10400
Cu1172     Cu  0.01575776  0.65691496  0.34048901     0.44200
Cu1173     Cu  0.01969571  0.68892734  0.32308463     0.42000
Cu1174     Cu  0.05464553  0.67974661  0.32687374     0.43900
N1175       N  0.03585992  0.65241399  0.34201710    -0.33200
N1176       N  0.05037516  0.66091256  0.33712378    -0.27400
C1177       C  0.06089543  0.65521850  0.33995964    -0.03500
C1178       C  0.05254525  0.64246942  0.34699207     0.08700
C1179       C  0.03666784  0.64106204  0.34805033     0.02500
H1180       H  0.07375767  0.66023191  0.33721849     0.10100
H1181       H  0.02631462  0.63232141  0.35278014     0.09200
N1182       N  0.05553445  0.69785987  0.31707302    -0.34600
N1183       N  0.04313162  0.70133791  0.31568941    -0.26800
C1184       C  0.04834549  0.71400934  0.30897862    -0.02100
C1185       C  0.06482761  0.71877113  0.30600839     0.06600
C1186       C  0.06884445  0.70813216  0.31128428     0.04600
H1187       H  0.04078050  0.71955256  0.30660910     0.09800
H1188       H  0.08055669  0.70771642  0.31091010     0.08600
N1189       N  0.83560763  0.64163011  0.36976607    -0.25800
N1190       N  0.83939245  0.63552386  0.37765697    -0.33700
C1191       C  0.85414881  0.63575963  0.37599359     0.02500
C1192       C  0.85997134  0.64229704  0.36659521     0.08600
C1193       C  0.84786795  0.64593131  0.36289022    -0.04500
H1194       H  0.86025121  0.63159523  0.38130021     0.09200
H1195       H  0.84775090  0.65099441  0.35565209     0.10400
Cu1196     Cu  0.82429973  0.62687755  0.39035687     0.44200
Cu1197     Cu  0.81376120  0.64349036  0.36865967     0.42000
Cu1198     Cu  0.78486268  0.62670506  0.38996055     0.43900
N1199       N  0.80745841  0.61887487  0.40230267    -0.33200
N1200       N  0.79288107  0.61886836  0.40215080    -0.27400
C1201       C  0.78482547  0.61299206  0.41086601    -0.03500
C1202       C  0.79477549  0.60896696  0.41682611     0.08700
C1203       C  0.80905750  0.61292667  0.41112647     0.02500
H1204       H  0.77243158  0.61135448  0.41260098     0.10100
H1205       H  0.81989367  0.61166410  0.41323080     0.09200
N1206       N  0.78038104  0.63688601  0.37742218    -0.34600
N1207       N  0.79083932  0.64331156  0.36978261    -0.26800
C1208       C  0.78413071  0.64952258  0.36322877    -0.02100
C1209       C  0.76872241  0.64688387  0.36695574     0.06600
C1210       C  0.76677027  0.63873352  0.37592840     0.04600
H1211       H  0.79022718  0.65577478  0.35637010     0.09800
H1212       H  0.75618862  0.63431832  0.38103265     0.08600
O1213       O  0.17335868  0.33305119  0.25156648    -0.71500
O1214       O  0.14279700  0.33740450  0.23159338    -0.72400
O1215       O  0.17296100  0.33514572  0.23070917    -0.61100
O1216       O  0.14318195  0.33512065  0.25266154    -0.69500
O1217       O  0.15855178  0.36328328  0.25353561    -0.69000
O1218       O  0.18897808  0.36324977  0.23155239    -0.60300
O1219       O  0.15861546  0.36556213  0.23227018    -0.72800
O1220       O  0.18898457  0.36119253  0.25254921    -0.71600
Cu1221     Cu  0.15752304  0.33426057  0.24159297     1.04600
Cu1222     Cu  0.17430185  0.36433465  0.24250973     1.04300
C1223       C  0.18610427  0.34642013  0.25518944     0.94700
C1224       C  0.14591402  0.35211205  0.22864992     0.93900
C1225       C  0.18585977  0.34902350  0.22774625     0.86000
C1226       C  0.14616293  0.34911779  0.25668739     0.92300
O1227       O  0.65538877  0.81027759  0.23145660    -0.71500
O1228       O  0.65961506  0.84450196  0.25202511    -0.72400
O1229       O  0.65684862  0.81164816  0.25241056    -0.61100
O1230       O  0.65832618  0.84291194  0.23110589    -0.69500
O1231       O  0.63019560  0.83095111  0.23143590    -0.69000
O1232       O  0.62862820  0.79945012  0.25288990    -0.60300
O1233       O  0.63136538  0.83189990  0.25238827    -0.72800
O1234       O  0.62724224  0.79823234  0.23192218    -0.71600
Cu1235     Cu  0.65853192  0.82776405  0.24173255     1.04600
Cu1236     Cu  0.62838798  0.81471395  0.24217977     1.04300
C1237       C  0.64062283  0.79876861  0.22846881     0.94700
C1238       C  0.64598317  0.84356437  0.25541230     0.93900
C1239       C  0.64246730  0.80051729  0.25600259     0.86000
C1240       C  0.64465802  0.84203658  0.22787951     0.92300
N1241       N  0.00739749  0.33212265  0.14615859    -0.25800
N1242       N  0.00639117  0.34153327  0.13899600    -0.33700
C1243       C  0.99170124  0.33224249  0.13400249     0.02500
C1244       C  0.98285325  0.31615483  0.13821764     0.08600
C1245       C  0.99320810  0.31657122  0.14594058    -0.04500
H1246       H  0.98752947  0.33708859  0.12794547     0.09200
H1247       H  0.99067531  0.30631870  0.15100860     0.10400
Cu1248     Cu  0.02422402  0.36701327  0.13669399     0.44200
Cu1249     Cu  0.02806835  0.34119843  0.15594346     0.42000
Cu1250     Cu  0.05769762  0.38691915  0.15500612     0.43900
N1251       N  0.04232963  0.39276864  0.13664738    -0.33200
N1252       N  0.05445238  0.40010851  0.14340746    -0.27400
C1253       C  0.06419690  0.41678011  0.14122507    -0.03500
C1254       C  0.05790317  0.42017565  0.13267302     0.08700
C1255       C  0.04397489  0.40457332  0.13001585     0.02500
H1256       H  0.07535328  0.42561952  0.14542206     0.10100
H1257       H  0.03551525  0.40191991  0.12377072     0.09200
N1258       N  0.06017007  0.37054483  0.16476739    -0.34600
N1259       N  0.04986731  0.35379691  0.16484488    -0.26800
C1260       C  0.05579797  0.34689778  0.17148263    -0.02100
C1261       C  0.07038810  0.35994652  0.17588032     0.06600
C1262       C  0.07271362  0.37474574  0.17144522     0.04600
H1263       H  0.04982604  0.33339576  0.17306834     0.09800
H1264       H  0.08305471  0.38760951  0.17277672     0.08600
N1265       N  0.67305889  0.98791374  0.14896811    -0.25800
N1266       N  0.66253077  0.99047027  0.14339676    -0.33700
C1267       C  0.67110406  0.00638303  0.13964621     0.02500
C1268       C  0.68786002  0.01422046  0.14297726     0.08600
C1269       C  0.68859644  0.00206524  0.14885406    -0.04500
H1270       H  0.66561649  0.01171221  0.13467941     0.09200
H1271       H  0.69958047  0.00342731  0.15284026     0.10400
Cu1272     Cu  0.63704641  0.97200439  0.14093543     0.44200
Cu1273     Cu  0.66589516  0.96530179  0.15649601     0.42000
Cu1274     Cu  0.62307166  0.93045418  0.15130792     0.43900
N1275       N  0.61234041  0.95131561  0.13930215    -0.33200
N1276       N  0.60738257  0.93601583  0.14298132    -0.27400
C1277       C  0.59084264  0.92548535  0.14075077    -0.03500
C1278       C  0.58498497  0.93456839  0.13539890     0.08700
C1279       C  0.59901953  0.95091781  0.13462400     0.02500
H1280       H  0.58355432  0.91230149  0.14308439     0.10100
H1281       H  0.59959926  0.96172329  0.13084830     0.09200
N1282       N  0.63983576  0.92868204  0.16090216    -0.34600
N1283       N  0.65529909  0.94135936  0.16302818    -0.26800
C1284       C  0.66210872  0.93618972  0.17014727    -0.02100
C1285       C  0.65033654  0.91942574  0.17257657     0.06600
C1286       C  0.63639903  0.91515535  0.16655002     0.04600
H1287       H  0.67460642  0.94414588  0.17337213     0.09800
H1288       H  0.62426212  0.90336097  0.16659168     0.08600
N1289       N  0.84011285  0.20305685  0.11272518    -0.25800
N1290       N  0.84330817  0.21299120  0.10490604    -0.33700
C1291       C  0.85846148  0.22732227  0.10615549     0.02500
C1292       C  0.86524268  0.22642454  0.11519658     0.08600
C1293       C  0.85320946  0.21081685  0.11915101    -0.04500
H1294       H  0.86437451  0.23736654  0.10069183     0.09200
H1295       H  0.85392780  0.20540389  0.12615155     0.10400
Cu1296     Cu  0.82765197  0.20617241  0.09252002     0.44200
Cu1297     Cu  0.81860316  0.17890489  0.11394333     0.42000
Cu1298     Cu  0.79181374  0.16302859  0.09198070     0.43900
N1299       N  0.81112695  0.19595640  0.08057425    -0.33200
N1300       N  0.79805506  0.18017950  0.08034796    -0.27400
C1301       C  0.78995411  0.17753393  0.07160712    -0.03500
C1302       C  0.79834684  0.19235780  0.06601391     0.08700
C1303       C  0.81173082  0.20374637  0.07198036     0.02500
H1304       H  0.77857005  0.16575968  0.06959125     0.10100
H1305       H  0.82138150  0.21670220  0.07020130     0.09200
N1306       N  0.78790408  0.14865753  0.10473223    -0.34600
N1307       N  0.79734546  0.15455014  0.11282729    -0.26800
C1308       C  0.79094086  0.14233511  0.11984143    -0.02100
C1309       C  0.77685742  0.12801621  0.11595692     0.06600
C1310       C  0.77536714  0.13250833  0.10635317     0.04600
H1311       H  0.79620204  0.14377100  0.12721146     0.09800
H1312       H  0.76556608  0.12478685  0.10101870     0.08600
N1313       N  0.28332933  0.33869117  0.16853819    -0.25800
N1314       N  0.28764009  0.35461349  0.16644543    -0.33700
C1315       C  0.27810398  0.35910033  0.17184038     0.02500
C1316       C  0.26703913  0.34537938  0.17763376     0.08600
C1317       C  0.27077374  0.33262431  0.17537293    -0.04500
H1318       H  0.27950454  0.37167428  0.17168572     0.09200
H1319       H  0.26473942  0.31984143  0.17838265     0.10400
Cu1320     Cu  0.30654198  0.37045075  0.15672209     0.44200
Cu1321     Cu  0.29521158  0.32641626  0.16204901     0.42000
Cu1322     Cu  0.33282885  0.35531905  0.14752323     0.43900
N1323       N  0.32745241  0.38513703  0.14791051    -0.33200
N1324       N  0.33767117  0.37962417  0.14486166    -0.27400
C1325       C  0.35034953  0.39181538  0.13945883    -0.03500
C1326       C  0.34785707  0.40561854  0.13902323     0.08700
C1327       C  0.33320386  0.40099670  0.14442538     0.02500
H1328       H  0.36028893  0.39049929  0.13584726     0.10100
H1329       H  0.32720448  0.40856321  0.14573452     0.09200
N1330       N  0.32449111  0.32989087  0.14956873    -0.34600
N1331       N  0.31066099  0.31907639  0.15454850    -0.26800
C1332       C  0.30868887  0.30335398  0.15377632    -0.02100
C1333       C  0.32203053  0.30452520  0.14813740     0.06600
C1334       C  0.33173148  0.32150279  0.14560039     0.04600
H1335       H  0.29833532  0.29195311  0.15705802     0.09800
H1336       H  0.34294651  0.32729146  0.14092504     0.08600
N1337       N  0.31697573  0.98718805  0.15152867    -0.25800
N1338       N  0.33016132  0.98969899  0.14607089    -0.33700
C1339       C  0.33826819  0.00582411  0.14268497     0.02500
C1340       C  0.32972853  0.01389208  0.14606697     0.08600
C1341       C  0.31625863  0.00168430  0.15164625    -0.04500
H1342       H  0.34908417  0.01101683  0.13770651     0.09200
H1343       H  0.30648053  0.00312929  0.15536418     0.10400
Cu1344     Cu  0.33599943  0.97096389  0.14265774     0.44200
Cu1345     Cu  0.30036815  0.96393126  0.15828959     0.42000
Cu1346     Cu  0.30983131  0.92980690  0.15331508     0.43900
N1347       N  0.34005680  0.95074139  0.14028009    -0.33200
N1348       N  0.33034898  0.93544805  0.14415483    -0.27400
C1349       C  0.33650468  0.92526620  0.14146373    -0.03500
C1350       C  0.35086983  0.93468976  0.13566147     0.08700
C1351       C  0.35268960  0.95077156  0.13505369     0.02500
H1352       H  0.33118296  0.91213326  0.14378496     0.10100
H1353       H  0.36246724  0.96171792  0.13110680     0.09200
N1354       N  0.29070552  0.92742529  0.16274466    -0.34600
N1355       N  0.28715602  0.93964775  0.16459661    -0.26800
C1356       C  0.27458748  0.93393482  0.17139329    -0.02100
C1357       C  0.27002416  0.91732659  0.17394216     0.06600
C1358       C  0.28053975  0.91369102  0.16827980     0.04600
H1359       H  0.26930531  0.94141404  0.17431952     0.09800
H1360       H  0.28125687  0.90213074  0.16843088     0.08600
N1361       N  0.35058671  0.15015643  0.11455317    -0.25800
N1362       N  0.35493204  0.14543165  0.10631535    -0.33700
C1363       C  0.35477251  0.13071792  0.10793563     0.02500
C1364       C  0.35019268  0.12584294  0.11771864     0.08600
C1365       C  0.34762583  0.13856864  0.12166410    -0.04500
H1366       H  0.35755915  0.12399685  0.10229616     0.09200
H1367       H  0.34414965  0.13958270  0.12918818     0.10400
Cu1368     Cu  0.36149224  0.15940881  0.09328312     0.44200
Cu1369     Cu  0.34907800  0.17228915  0.11561438     0.42000
Cu1370     Cu  0.36085265  0.19869370  0.09325417     0.43900
N1371       N  0.36951378  0.17610683  0.08138571    -0.33200
N1372       N  0.36922146  0.19053352  0.08135478    -0.27400
C1373       C  0.37637023  0.19904865  0.07293184    -0.03500
C1374       C  0.38153680  0.18956547  0.06739841     0.08700
C1375       C  0.37689149  0.17505053  0.07298851     0.02500
H1376       H  0.37845074  0.21162084  0.07122953     0.10100
H1377       H  0.37902908  0.16462959  0.07121710     0.09200
N1378       N  0.35350275  0.20473078  0.10642252    -0.34600
N1379       N  0.34921309  0.19527596  0.11452870    -0.26800
C1380       C  0.34499355  0.20293750  0.12162111    -0.02100
C1381       C  0.34668198  0.21790815  0.11778447     0.06600
C1382       C  0.35217173  0.21861317  0.10813836     0.04600
H1383       H  0.34060599  0.19773190  0.12894377     0.09800
H1384       H  0.35508743  0.22851032  0.10272823     0.08600
N1385       N  0.27382418  0.79441197  0.01727058    -0.25800
N1386       N  0.26787692  0.78427199  0.02507452    -0.33700
C1387       C  0.28006657  0.78974007  0.03207162     0.02500
C1388       C  0.29454276  0.80396846  0.02853755     0.08600
C1389       C  0.29014755  0.80656777  0.01909616    -0.04500
H1390       H  0.27869811  0.78338135  0.03907970     0.09200
H1391       H  0.29823958  0.81647218  0.01392277     0.10400
Cu1392     Cu  0.24410066  0.76240681  0.02565633     0.44200
Cu1393     Cu  0.25911771  0.79039012  0.00451115     0.42000
Cu1394     Cu  0.21850575  0.74914044  0.00373386     0.43900
N1395       N  0.22123782  0.73957864  0.02464274    -0.33200
N1396       N  0.21199366  0.73416371  0.01646463    -0.27400
C1397       C  0.19868921  0.71832670  0.01805270    -0.03500
C1398       C  0.19956817  0.71372939  0.02775278     0.08700
C1399       C  0.21402943  0.72753048  0.03167024     0.02500
H1400       H  0.18918863  0.71070219  0.01255078     0.10100
H1401       H  0.21936203  0.72844769  0.03897403     0.09200
N1402       N  0.22691764  0.76766494  0.99267321    -0.34600
N1403       N  0.24124051  0.78262105  0.99299496    -0.26800
C1404       C  0.24198870  0.79169163  0.98489803    -0.02100
C1405       C  0.22753485  0.78196279  0.97918093     0.06600
C1406       C  0.21833006  0.76682178  0.98435591     0.04600
H1407       H  0.25232321  0.80442974  0.98329016     0.09800
H1408       H  0.20598646  0.75613166  0.98238070     0.08600
N1409       N  0.14216796  0.57581732  0.06854295    -0.35100
N1410       N  0.12641728  0.59018923  0.08104901    -0.55700
N1411       N  0.10978946  0.55875171  0.09251512    -0.35100
N1412       N  0.12699955  0.54509541  0.08061859    -0.55700
C1413       C  0.15075274  0.59230449  0.06555302     0.28500
C1414       C  0.15097436  0.56833263  0.06529940     0.28500
C1415       C  0.10635552  0.56888498  0.09826669     0.28500
C1416       C  0.10669649  0.54501963  0.09802177     0.28500
C1417       C  0.13281128  0.60228704  0.07391081     0.37100
C1418       C  0.11592371  0.59337754  0.08661689     0.37100
C1419       C  0.13323514  0.53985912  0.07316396     0.37100
C1420       C  0.11644233  0.53099402  0.08588782     0.37100
C1421       C  0.16513477  0.59530549  0.06027615    -0.20400
C1422       C  0.16532428  0.58020065  0.06016128    -0.20400
C1423       C  0.10074321  0.56136405  0.10748622    -0.20400
C1424       C  0.10095417  0.54629207  0.10732933    -0.20400
C1425       C  0.12649363  0.61331603  0.07502619    -0.21500
C1426       C  0.11579332  0.60766517  0.08306766    -0.21500
C1427       C  0.12661996  0.52235538  0.07372279    -0.21500
C1428       C  0.11606885  0.51676299  0.08182354    -0.21500
C1429       C  0.14526414  0.60430824  0.06687674    -0.16800
C1430       C  0.14580146  0.55083147  0.06632469    -0.16800
C1431       C  0.10800289  0.53093063  0.09469199    -0.16800
C1432       C  0.10741716  0.58434836  0.09528329    -0.16800
H1433       H  0.17445023  0.60709778  0.05678231     0.16100
H1434       H  0.17482694  0.57813845  0.05657869     0.16100
H1435       H  0.09681407  0.56618429  0.11367604     0.16100
H1436       H  0.09719487  0.53724629  0.11336507     0.16100
H1437       H  0.12949989  0.62446087  0.07062319     0.14400
H1438       H  0.10888914  0.61354835  0.08604457     0.14400
H1439       H  0.12928202  0.51444804  0.06888421     0.14400
H1440       H  0.10901222  0.50372747  0.08445635     0.14400
H1441       H  0.12995823  0.56952459  0.07153228     0.27600
H1442       H  0.11230988  0.56020973  0.08496956     0.27600
N1443       N  0.50490401  0.77640712  0.02193789    -0.25800
N1444       N  0.49997996  0.76629075  0.02974363    -0.33700
C1445       C  0.49652762  0.77388410  0.03720981     0.02500
C1446       C  0.49954945  0.78977920  0.03407075     0.08600
C1447       C  0.50494466  0.79088020  0.02428792    -0.04500
H1448       H  0.49135769  0.76775293  0.04423570     0.09200
H1449       H  0.50842693  0.80123929  0.01913906     0.10400
Cu1450     Cu  0.49701546  0.74208190  0.02971128     0.44200
Cu1451     Cu  0.50992635  0.76896885  0.00835587     0.42000
Cu1452     Cu  0.50281920  0.72529631  0.00667430     0.43900
N1453       N  0.49274865  0.71749747  0.02810826    -0.33200
N1454       N  0.49420539  0.71102358  0.01963126    -0.27400
C1455       C  0.48991110  0.69463194  0.02109830    -0.03500
C1456       C  0.48575250  0.69071613  0.03100296     0.08700
C1457       C  0.48771543  0.70552834  0.03520169     0.02500
H1458       H  0.49019665  0.68632606  0.01543441     0.10100
H1459       H  0.48544680  0.70742775  0.04284094     0.09200
N1460       N  0.51312965  0.74329106  0.99536881    -0.34600
N1461       N  0.51534421  0.75885104  0.99596714    -0.26800
C1462       C  0.52294829  0.76742934  0.98764504    -0.02100
C1463       C  0.52595814  0.75694328  0.98150632     0.06600
C1464       C  0.51943751  0.74166949  0.98666071     0.04600
H1465       H  0.52627501  0.78050113  0.98628966     0.09800
H1466       H  0.51989675  0.73042263  0.98447326     0.08600
N1467       N  0.43063775  0.86047827  0.07226715    -0.35100
N1468       N  0.41570309  0.87686409  0.08361600    -0.55700
N1469       N  0.44430871  0.88947723  0.09771489    -0.35100
N1470       N  0.46016455  0.87483667  0.08562726    -0.55700
C1471       C  0.41787788  0.85812082  0.06604972     0.28500
C1472       C  0.44141201  0.85710133  0.06710973     0.28500
C1473       C  0.43636815  0.89775948  0.10105013     0.28500
C1474       C  0.45995541  0.89686485  0.10200057     0.28500
C1475       C  0.40253535  0.86771317  0.07732559     0.37100
C1476       C  0.40971722  0.88293808  0.09076980     0.37100
C1477       C  0.46345478  0.86422998  0.08025015     0.37100
C1478       C  0.47074621  0.87970701  0.09355349     0.37100
C1479       C  0.42051020  0.85304541  0.05684238    -0.20400
C1480       C  0.43538184  0.85245281  0.05750140    -0.20400
C1481       C  0.44698515  0.91039699  0.10767702    -0.20400
C1482       C  0.46188151  0.90985212  0.10825853    -0.20400
C1483       C  0.38822183  0.86826105  0.08039138    -0.21500
C1484       C  0.39275812  0.87788656  0.08889828    -0.21500
C1485       C  0.47624140  0.86244804  0.08475666    -0.21500
C1486       C  0.48093539  0.87233785  0.09313873    -0.21500
C1487       C  0.40342152  0.85944938  0.06862226    -0.16800
C1488       C  0.45582420  0.85688284  0.07103805    -0.16800
C1489       C  0.47210980  0.89153753  0.10084393    -0.16800
C1490       C  0.41945884  0.89361433  0.09873752    -0.16800
H1491       H  0.41247067  0.84994095  0.05034377     0.16100
H1492       H  0.44098182  0.84876316  0.05161206     0.16100
H1493       H  0.44424124  0.91904666  0.11173707     0.16100
H1494       H  0.47278854  0.91794969  0.11286706     0.16100
H1495       H  0.37581800  0.86239374  0.07685329     0.14400
H1496       H  0.38450686  0.88087475  0.09319332     0.14400
H1497       H  0.48174255  0.85491811  0.08223314     0.14400
H1498       H  0.49075366  0.87392847  0.09832306     0.14400
H1499       H  0.43087227  0.86219091  0.07987528     0.27600
H1500       H  0.43861411  0.87827012  0.09362780     0.27600
N1501       N  0.42426635  0.55172857  0.06969896    -0.35100
N1502       N  0.40992582  0.52195242  0.08242155    -0.55700
N1503       N  0.44120729  0.53740545  0.09417536    -0.35100
N1504       N  0.45489139  0.56771851  0.08185311    -0.55700
C1505       C  0.40779084  0.54364832  0.06667387     0.28500
C1506       C  0.43159102  0.56801875  0.06642170     0.28500
C1507       C  0.43064271  0.52427328  0.10010533     0.28500
C1508       C  0.45442762  0.54866053  0.09985436     0.28500
C1509       C  0.39766399  0.51598666  0.07536932     0.37100
C1510       C  0.40666029  0.50850509  0.08821833     0.37100
C1511       C  0.45999057  0.57941651  0.07452103     0.37100
C1512       C  0.46882769  0.57194264  0.08745681     0.37100
C1513       C  0.40469831  0.55484874  0.06128118    -0.20400
C1514       C  0.41971489  0.57019274  0.06108947    -0.20400
C1515       C  0.43738292  0.52703901  0.10960288    -0.20400
C1516       C  0.45237471  0.54245329  0.10945018    -0.20400
C1517       C  0.38654673  0.49866732  0.07668748    -0.21500
C1518       C  0.39222040  0.49392830  0.08485322    -0.21500
C1519       C  0.47727142  0.59109772  0.07544053    -0.21500
C1520       C  0.48289145  0.58632042  0.08362293    -0.21500
C1521       C  0.39563940  0.52623768  0.06823666    -0.16800
C1522       C  0.44887598  0.58079746  0.06773645    -0.16800
C1523       C  0.46860183  0.56409686  0.09654442    -0.16800
C1524       C  0.41537046  0.50959571  0.09711206    -0.16800
H1525       H  0.39285216  0.55224011  0.05780405     0.16100
H1526       H  0.42163947  0.58162165  0.05738942     0.16100
H1527       H  0.43203538  0.51883517  0.11599899     0.16100
H1528       H  0.46079339  0.54841743  0.11570855     0.16100
H1529       H  0.37531487  0.49039160  0.07235462     0.14400
H1530       H  0.38617231  0.48128893  0.08808330     0.14400
H1531       H  0.48492213  0.60217396  0.07086282     0.14400
H1532       H  0.49573679  0.59297480  0.08658789     0.14400
H1533       H  0.43057533  0.54601343  0.07289967     0.27600
H1534       H  0.44027061  0.53784094  0.08651875     0.27600
N1535       N  0.20974271  0.48340219  0.01761014    -0.25800
N1536       N  0.22032812  0.48835561  0.02520845    -0.33700
C1537       C  0.21629115  0.49714097  0.03155529     0.02500
C1538       C  0.20248349  0.49787793  0.02775583     0.08600
C1539       C  0.19859764  0.48893604  0.01889369    -0.04500
H1540       H  0.22297741  0.50255776  0.03843316     0.09200
H1541       H  0.18873879  0.48695579  0.01364226     0.10400
Cu1542     Cu  0.24057725  0.48420740  0.02620480     0.44200
Cu1543     Cu  0.21206932  0.47013548  0.00589288     0.42000
Cu1544     Cu  0.25061073  0.46579178  0.00550101     0.43900
N1545       N  0.26247088  0.48279393  0.02535509    -0.33200
N1546       N  0.26653431  0.47618036  0.01783859    -0.27400
C1547       C  0.28210755  0.47816545  0.01957604    -0.03500
C1548       C  0.28807931  0.48662028  0.02856166     0.08700
C1549       C  0.27520930  0.48923078  0.03198944     0.02500
H1550       H  0.28878403  0.47424351  0.01454103     0.10100
H1551       H  0.27508962  0.49545984  0.03880441     0.09200
N1552       N  0.23180146  0.45681673  0.99448838    -0.34600
N1553       N  0.21802087  0.45833650  0.99480879    -0.26800
C1554       C  0.20845092  0.45105302  0.98672863    -0.02100
C1555       C  0.21645557  0.44453296  0.98097040     0.06600
C1556       C  0.23128734  0.44848514  0.98610973     0.04600
H1557       H  0.19659818  0.45075837  0.98514545     0.09800
H1558       H  0.24083730  0.44522957  0.98404170     0.08600
N1559       N  0.63698814  0.69186752  0.17185335    -0.25800
N1560       N  0.62062875  0.68656553  0.17038861    -0.33700
C1561       C  0.61607641  0.69568322  0.17618552     0.02500
C1562       C  0.63022196  0.70726993  0.18157409     0.08600
C1563       C  0.64323034  0.70442728  0.17864808    -0.04500
H1564       H  0.60337754  0.69398559  0.17642256     0.09200
H1565       H  0.65643196  0.71137249  0.18100596     0.10400
Cu1566     Cu  0.60502440  0.66747690  0.16047616     0.44200
Cu1567     Cu  0.65058004  0.68270291  0.16423769     0.42000
Cu1568     Cu  0.62532787  0.64843672  0.14708239     0.43900
N1569       N  0.59214284  0.64787108  0.15030084    -0.33200
N1570       N  0.59961752  0.64069951  0.14549113    -0.27400
C1571       C  0.58829723  0.62890707  0.13921169    -0.03500
C1572       C  0.57289854  0.62866295  0.14002732     0.08700
C1573       C  0.57585247  0.64085378  0.14718845     0.02500
H1574       H  0.59120854  0.62126978  0.13430911     0.10100
H1575       H  0.56704950  0.64484697  0.14968053     0.09200
N1576       N  0.65152385  0.65913975  0.14895884    -0.34600
N1577       N  0.66085514  0.67167355  0.15519612    -0.26800
C1578       C  0.67719674  0.67528420  0.15470441    -0.02100
C1579       C  0.67817100  0.66439476  0.14785798     0.06600
C1580       C  0.66164433  0.65444828  0.14433738     0.04600
H1581       H  0.68744987  0.68472161  0.15924658     0.09800
H1582       H  0.65720842  0.64441073  0.13884580     0.08600
N1583       N  0.99847715  0.66627147  0.15368801    -0.25800
N1584       N  0.99694606  0.65378584  0.14791705    -0.33700
C1585       C  0.98099992  0.64530717  0.14424055     0.02500
C1586       C  0.97196030  0.65278514  0.14783040     0.08600
C1587       C  0.98346884  0.66600407  0.15385705    -0.04500
H1588       H  0.97643346  0.63461471  0.13919456     0.09200
H1589       H  0.98134522  0.67522267  0.15773744     0.10400
Cu1590     Cu  0.01687418  0.64951701  0.14462299     0.44200
Cu1591     Cu  0.02137060  0.68379982  0.16041513     0.42000
Cu1592     Cu  0.05869096  0.68113139  0.15339391     0.43900
N1593       N  0.03903214  0.64901921  0.14145139    -0.33200
N1594       N  0.05439975  0.66098805  0.14434257    -0.27400
C1595       C  0.06609952  0.65741947  0.14075427    -0.03500
C1596       C  0.05764193  0.64236046  0.13545925     0.08700
C1597       C  0.04051545  0.63735292  0.13605580     0.02500
H1598       H  0.07970606  0.66507146  0.14204142     0.10100
H1599       H  0.02994909  0.62622602  0.13267065     0.09200
N1600       N  0.05938238  0.69891904  0.16322738    -0.34600
N1601       N  0.04583522  0.69985177  0.16589504    -0.26800
C1602       C  0.05057082  0.71217793  0.17277012    -0.02100
C1603       C  0.06793199  0.71933061  0.17450962     0.06600
C1604       C  0.07305890  0.71058679  0.16830441     0.04600
H1605       H  0.04193650  0.71552610  0.17630210     0.09800
H1606       H  0.08565035  0.71205756  0.16780343     0.08600
N1607       N  0.82995211  0.62487438  0.12312524    -0.25800
N1608       N  0.83096226  0.61477793  0.11641245    -0.33700
C1609       C  0.84521127  0.61399941  0.11802738     0.02500
C1610       C  0.85375524  0.62423455  0.12607998     0.08600
C1611       C  0.84369461  0.63094944  0.12911582    -0.04500
H1612       H  0.84945268  0.60712936  0.11337030     0.09200
H1613       H  0.84624366  0.63973532  0.13517515     0.10400
Cu1614     Cu  0.81428117  0.60419698  0.10453463     0.44200
Cu1615     Cu  0.81024022  0.63045185  0.12353339     0.42000
Cu1616     Cu  0.78374089  0.61837291  0.10153558     0.43900
N1617       N  0.79856384  0.59835524  0.09220956    -0.33200
N1618       N  0.78771770  0.60394088  0.09104960    -0.27400
C1619       C  0.77972761  0.59840205  0.08229656    -0.03500
C1620       C  0.78569680  0.58871834  0.07767990     0.08700
C1621       C  0.79772884  0.58906778  0.08421040     0.02500
H1622       H  0.77037797  0.60142691  0.07948512     0.10100
H1623       H  0.80518616  0.58285664  0.08332166     0.09200
N1624       N  0.78052431  0.63077507  0.11357404    -0.34600
N1625       N  0.78975347  0.63463340  0.12177228    -0.26800
C1626       C  0.78372541  0.64151299  0.12834475    -0.02100
C1627       C  0.77023731  0.64224718  0.12401095     0.06600
C1628       C  0.76857809  0.63532661  0.11465409     0.04600
H1629       H  0.78881217  0.64570936  0.13571902     0.09800
H1630       H  0.75902819  0.63324451  0.10914830     0.08600
O1631       O  0.18832426  0.82973881  0.25130859    -0.71500
O1632       O  0.15656221  0.79833493  0.23051129    -0.72400
O1633       O  0.18866400  0.82898686  0.23030224    -0.61100
O1634       O  0.15631921  0.79900351  0.25137765    -0.69500
O1635       O  0.14308280  0.81391343  0.25106008    -0.69000
O1636       O  0.17561487  0.84406886  0.22983473    -0.60300
O1637       O  0.14336856  0.81329064  0.23008923    -0.72800
O1638       O  0.17530113  0.84486978  0.25095027    -0.71600
Cu1639     Cu  0.17293318  0.81353409  0.24089194     1.04600
Cu1640     Cu  0.15889709  0.82958444  0.24046620     1.04300
C1641       C  0.18689567  0.84225944  0.25447441     0.94700
C1642       C  0.14477169  0.80068868  0.22705812     0.93900
C1643       C  0.18732879  0.84129554  0.22668554     0.86000
C1644       C  0.14442723  0.80148300  0.25449900     0.92300
C1645       C  0.10766110  0.77924316  0.20895250     0.14200
C1646       C  0.11053962  0.76678100  0.20470329     0.01100
C1647       C  0.12424760  0.76504007  0.20805320     0.16100
C1648       C  0.13524304  0.77589119  0.21537123     0.25500
C1649       C  0.13273459  0.78877672  0.21950876    -0.40800
C1650       C  0.11859978  0.79011667  0.21631200     0.32600
C1651       C  0.09931286  0.75551693  0.19676007     0.01200
F1652       F  0.12689101  0.75266048  0.20427516    -0.13100
F1653       F  0.11525490  0.80189367  0.22029346    -0.13700
C1654       C  0.10613424  0.75556707  0.18741606     0.16100
C1655       C  0.09587060  0.74401564  0.18010918     0.25500
C1656       C  0.07852042  0.73233667  0.18199679    -0.40800
C1657       C  0.07160830  0.73270126  0.19127815     0.32500
C1658       C  0.08195315  0.74415597  0.19860732     0.14200
F1659       F  0.12279093  0.76681666  0.18539442    -0.13100
F1660       F  0.05507170  0.72136983  0.19347879    -0.13600
F1661       F  0.10290664  0.74436929  0.17117067    -0.15900
F1662       F  0.07519634  0.74365833  0.20766305    -0.14500
F1663       F  0.09442329  0.78109281  0.20583202    -0.14500
F1664       F  0.14837850  0.77374887  0.21832837    -0.15900
C1665       C  0.93147588  0.63843169  0.13285144     0.14200
C1666       C  0.92069998  0.63982332  0.13978463     0.01100
C1667       C  0.92685123  0.64565689  0.14940093     0.16100
C1668       C  0.94350462  0.64988141  0.15206026     0.25500
C1669       C  0.95430904  0.64840664  0.14511491    -0.40800
C1670       C  0.94812130  0.64276351  0.13545615     0.32600
C1671       C  0.90323741  0.63561734  0.13681612     0.01200
F1672       F  0.91662726  0.64702396  0.15624985    -0.13100
F1673       F  0.95838976  0.64207356  0.12837488    -0.13700
C1674       C  0.89110469  0.61892357  0.13393398     0.16100
C1675       C  0.87492900  0.61516578  0.13059869     0.25500
C1676       C  0.87062506  0.62807417  0.13002573    -0.40800
C1677       C  0.88280559  0.64478212  0.13292958     0.32500
C1678       C  0.89893383  0.64848812  0.13632923     0.14200
F1679       F  0.89495287  0.60625383  0.13435336    -0.13100
F1680       F  0.87944329  0.65772569  0.13200025    -0.13600
F1681       F  0.86340157  0.59884384  0.12804419    -0.15900
F1682       F  0.91063586  0.66481537  0.13876371    -0.14500
F1683       F  0.92600399  0.63331770  0.12343407    -0.14500
F1684       F  0.94889131  0.65502546  0.16148413    -0.15900
C1685       C  0.74000583  0.64617353  0.14175299     0.14200
C1686       C  0.73535903  0.65645295  0.13630947     0.01100
C1687       C  0.74322002  0.66307535  0.12712973     0.16100
C1688       C  0.75488951  0.65876527  0.12322569     0.25500
C1689       C  0.75913196  0.64804063  0.12852911    -0.40800
C1690       C  0.75193107  0.64214563  0.13794319     0.32600
C1691       C  0.72110111  0.65878289  0.13971919     0.01200
F1692       F  0.73897722  0.67305289  0.12173553    -0.13100
F1693       F  0.75569742  0.63169288  0.14321011    -0.13700
C1694       C  0.72357160  0.67507125  0.14184783     0.16100
C1695       C  0.70971791  0.67699808  0.14468649     0.25500
C1696       C  0.69315891  0.66264547  0.14531965    -0.40800
C1697       C  0.69087499  0.64637234  0.14334746     0.32500
C1698       C  0.70466388  0.64448804  0.14054836     0.14200
F1699       F  0.73938379  0.68907461  0.14116943    -0.13100
F1700       F  0.67529815  0.63214258  0.14430437    -0.13600
F1701       F  0.71242955  0.69291389  0.14650236    -0.15900
F1702       F  0.70187325  0.62864040  0.13840909    -0.14500
F1703       F  0.73260784  0.63965245  0.15065075    -0.14500
F1704       F  0.76199151  0.66499603  0.11423010    -0.15900
C1705       C  0.50878071  0.57521975  0.11105086     0.14200
C1706       C  0.51198124  0.59024773  0.11599304     0.01100
C1707       C  0.50066475  0.59645584  0.11458915     0.16100
C1708       C  0.48658541  0.58794271  0.10826731     0.25500
C1709       C  0.48355685  0.57307669  0.10326823    -0.40800
C1710       C  0.49466387  0.56670053  0.10475046     0.32600
C1711       C  0.52745964  0.59979502  0.12227407     0.01200
F1712       F  0.50350912  0.61103376  0.11912642    -0.13100
F1713       F  0.49189087  0.55230915  0.10000379    -0.13700
C1714       C  0.54372412  0.60536980  0.11825128     0.16100
C1715       C  0.55840477  0.61456451  0.12403350     0.25500
C1716       C  0.55719530  0.61858346  0.13397873    -0.40800
C1717       C  0.54087770  0.61310763  0.13798842     0.32500
C1718       C  0.52616215  0.60371615  0.13220831     0.14200
F1719       F  0.54544495  0.60237103  0.10858112    -0.13100
F1720       F  0.53908830  0.61648784  0.14757082    -0.13600
F1721       F  0.57384202  0.62012666  0.11972095    -0.15900
F1722       F  0.51060729  0.59821783  0.13636653    -0.14500
F1723       F  0.51929489  0.56874631  0.11237091    -0.14500
F1724       F  0.47590398  0.59422560  0.10696728    -0.15900
C1725       C  0.36560906  0.51070736  0.04620716     0.14200
C1726       C  0.35007083  0.50697313  0.05061794     0.01100
C1727       C  0.34939653  0.50891189  0.06092315     0.16100
C1728       C  0.36410156  0.51471245  0.06671218     0.25500
C1729       C  0.37968745  0.51868095  0.06227077    -0.40800
C1730       C  0.38033326  0.51659914  0.05199152     0.32600
C1731       C  0.33478422  0.50205942  0.04444182     0.01200
F1732       F  0.33451920  0.50541948  0.06534125    -0.13100
F1733       F  0.39538417  0.52080801  0.04754349    -0.13700
C1734       C  0.32719574  0.48684207  0.03891169     0.16100
C1735       C  0.31219304  0.48193440  0.03351198     0.25500
C1736       C  0.30468106  0.49227433  0.03351021    -0.40800
C1737       C  0.31277289  0.50786049  0.03872096     0.32500
C1738       C  0.32761480  0.51264187  0.04416493     0.14200
F1739       F  0.33400623  0.47648199  0.03901218    -0.13100
F1740       F  0.30647555  0.51865443  0.03843499    -0.13600
F1741       F  0.30462060  0.46673728  0.02867384    -0.15900
F1742       F  0.33510461  0.52772299  0.04913790    -0.14500
F1743       F  0.36666208  0.50934757  0.03624811    -0.14500
F1744       F  0.36328912  0.51701601  0.07659679    -0.15900
C1745       C  0.48769855  0.82376599  0.04002573     0.14200
C1746       C  0.48530362  0.82193640  0.05031071     0.01100
C1747       C  0.48901911  0.81065531  0.05535246     0.16100
C1748       C  0.49449906  0.80090430  0.05015076     0.25500
C1749       C  0.49589385  0.80183065  0.03970350    -0.40800
C1750       C  0.49279793  0.81376309  0.03474956     0.32600
C1751       C  0.47794475  0.83103320  0.05565652     0.01200
F1752       F  0.48723236  0.80900434  0.06534818    -0.13100
F1753       F  0.49384636  0.81531194  0.02474940    -0.13700
C1754       C  0.46166682  0.82172894  0.05997706     0.16100
C1755       C  0.45433413  0.83019708  0.06474197     0.25500
C1756       C  0.46318549  0.84808734  0.06530541    -0.40800
C1757       C  0.47943589  0.85743687  0.06095563     0.32500
C1758       C  0.48678464  0.84895983  0.05617700     0.14200
F1759       F  0.45279502  0.80442037  0.05947285    -0.13100
F1760       F  0.48819471  0.87475124  0.06143112    -0.13600
F1761       F  0.43866798  0.82095335  0.06894117    -0.15900
F1762       F  0.50263866  0.85819993  0.05220979    -0.14500
F1763       F  0.48426770  0.83469050  0.03500741    -0.14500
F1764       F  0.49847828  0.79063384  0.05542888    -0.15900
C1765       C  0.46370395  0.64340543  0.03694468     0.14200
C1766       C  0.47043064  0.64360704  0.04636738     0.01100
C1767       C  0.48234862  0.65928885  0.05061855     0.16100
C1768       C  0.48742109  0.67456466  0.04556673     0.25500
C1769       C  0.48067611  0.67443567  0.03615234    -0.40800
C1770       C  0.46884775  0.65870728  0.03184709     0.32600
C1771       C  0.46502718  0.62751908  0.05182482     0.01200
F1772       F  0.48927754  0.65976459  0.05962239    -0.13100
F1773       F  0.46181902  0.65818579  0.02287199    -0.13700
C1774       C  0.46858112  0.61517138  0.04803459     0.16100
C1775       C  0.46357842  0.60003637  0.05326789     0.25500
C1776       C  0.45510136  0.59716266  0.06237792    -0.40800
C1777       C  0.45173955  0.60957172  0.06622745     0.32500
C1778       C  0.45656978  0.62460090  0.06096402     0.14200
F1779       F  0.47709572  0.61791094  0.03933863    -0.13100
F1780       F  0.44346627  0.60691040  0.07500780    -0.13600
F1781       F  0.46693721  0.58816049  0.04946156    -0.15900
F1782       F  0.45270443  0.63617738  0.06468554    -0.14500
F1783       F  0.45182404  0.62841508  0.03280899    -0.14500
F1784       F  0.49930916  0.68947284  0.04977153    -0.15900
C1785       C  0.07532352  0.59336403  0.10784410     0.14200
C1786       C  0.08604665  0.60752953  0.11379712     0.01100
C1787       C  0.10369893  0.61353908  0.11391925     0.16100
C1788       C  0.11057732  0.60585819  0.10797234     0.25500
C1789       C  0.09991707  0.59199200  0.10186735    -0.40800
C1790       C  0.08222645  0.58562181  0.10193517     0.32600
C1791       C  0.07897780  0.61648639  0.11956353     0.01200
F1792       F  0.11426581  0.62684775  0.11982436    -0.13100
F1793       F  0.07173254  0.57215922  0.09610684    -0.13700
C1794       C  0.06599174  0.60766723  0.12658734     0.16100
C1795       C  0.05911157  0.61614828  0.13181221     0.25500
C1796       C  0.06524068  0.63358271  0.13017167    -0.40800
C1797       C  0.07845694  0.64250161  0.12332350     0.32500
C1798       C  0.08515205  0.63398126  0.11798337     0.14200
F1799       F  0.06016071  0.59091619  0.12849049    -0.13100
F1800       F  0.08444928  0.65932277  0.12154347    -0.13600
F1801       F  0.04676773  0.60746301  0.13866956    -0.15900
F1802       F  0.09734702  0.64270532  0.11105454    -0.14500
F1803       F  0.05825837  0.58740503  0.10750305    -0.14500
F1804       F  0.12767289  0.61197300  0.10811711    -0.15900
C1805       C  0.15949251  0.53503710  0.04402336     0.14200
C1806       C  0.16916737  0.52869814  0.04854225     0.01100
C1807       C  0.17132692  0.52988437  0.05888717     0.16100
C1808       C  0.16413046  0.53748820  0.06461213     0.25500
C1809       C  0.15428874  0.54366266  0.06012511    -0.40800
C1810       C  0.15207122  0.54244220  0.04978244     0.32600
C1811       C  0.17763959  0.52144630  0.04252453     0.01200
F1812       F  0.18029825  0.52350553  0.06345335    -0.13100
F1813       F  0.14266915  0.54838178  0.04528629    -0.13700
C1814       C  0.19540356  0.52858404  0.04317311     0.16100
C1815       C  0.20350751  0.52123594  0.03810597     0.25500
C1816       C  0.19397486  0.50647789  0.03232151    -0.40800
C1817       C  0.17624145  0.49969860  0.03134563     0.32500
C1818       C  0.16813554  0.50715112  0.03640944     0.14200
F1819       F  0.20494274  0.54273582  0.04876006    -0.13100
F1820       F  0.16660689  0.48538685  0.02590708    -0.13600
F1821       F  0.22074974  0.52873797  0.03879982    -0.15900
F1822       F  0.15092778  0.49997757  0.03566909    -0.14500
F1823       F  0.15752090  0.53434547  0.03402873    -0.14500
F1824       F  0.16668726  0.53877248  0.07456456    -0.15900
C1825       C  0.37129560  0.85397269  0.04863901     0.14200
C1826       C  0.35899230  0.83659355  0.04964810     0.01100
C1827       C  0.36163179  0.82669927  0.05667770     0.16100
C1828       C  0.37617920  0.83411486  0.06272955     0.25500
C1829       C  0.38830841  0.85156115  0.06187635    -0.40800
C1830       C  0.38579534  0.86143988  0.05476902     0.32600
C1831       C  0.34273796  0.82902537  0.04399084     0.01200
F1832       F  0.34996989  0.80986700  0.05774049    -0.13100
F1833       F  0.39723459  0.87836467  0.05391567    -0.13700
C1834       C  0.34220101  0.82554364  0.03380040     0.16100
C1835       C  0.32658577  0.81785453  0.02866427     0.25500
C1836       C  0.31126740  0.81336793  0.03367796    -0.40800
C1837       C  0.31190980  0.81700631  0.04386076     0.32500
C1838       C  0.32749779  0.82484465  0.04893902     0.14200
F1839       F  0.35669615  0.82903312  0.02891566    -0.13100
F1840       F  0.29742516  0.81309171  0.04890021    -0.13600
F1841       F  0.32632759  0.81399810  0.01892125    -0.15900
F1842       F  0.32775140  0.82836100  0.05873932    -0.14500
F1843       F  0.36895971  0.86379906  0.04194487    -0.14500
F1844       F  0.37824685  0.82437797  0.06961420    -0.15900
C1845       C  0.17701455  0.66633818  0.03328634     0.14200
C1846       C  0.17309448  0.66609152  0.04339812     0.01100
C1847       C  0.17629334  0.68135817  0.04798220     0.16100
C1848       C  0.18413207  0.69673690  0.04271711     0.25500
C1849       C  0.18886356  0.69713901  0.03275419    -0.40800
C1850       C  0.18475647  0.68173145  0.02799025     0.32600
C1851       C  0.16619370  0.65008982  0.04925921     0.01200
F1852       F  0.17193705  0.68137939  0.05760511    -0.13100
F1853       F  0.18920573  0.68171021  0.01838969    -0.13700
C1854       C  0.17501888  0.64934907  0.05767399     0.16100
C1855       C  0.16841239  0.63437388  0.06330723     0.25500
C1856       C  0.15293975  0.61989631  0.06059116    -0.40800
C1857       C  0.14417855  0.62055892  0.05216645     0.32500
C1858       C  0.15072648  0.63553848  0.04655035     0.14200
F1859       F  0.19007896  0.66313406  0.06041069    -0.13100
F1860       F  0.12904057  0.60677669  0.04954685    -0.13600
F1861       F  0.17699246  0.63402215  0.07147457    -0.15900
F1862       F  0.14169239  0.63602197  0.03865082    -0.14500
F1863       F  0.17413819  0.65181142  0.02866755    -0.14500
F1864       F  0.18716948  0.71129447  0.04736959    -0.15900
C1865       C  0.24391420  0.90245276  0.19763323     0.14200
C1866       C  0.23468182  0.88466688  0.19629097     0.01100
C1867       C  0.23694037  0.87767931  0.18752362     0.16100
C1868       C  0.24828290  0.88829561  0.18022543     0.25500
C1869       C  0.25753885  0.90614881  0.18153496    -0.40800
C1870       C  0.25514705  0.91311162  0.19030822     0.32600
C1871       C  0.22253900  0.87346048  0.20399007     0.01200
F1872       F  0.22788933  0.86056478  0.18594535    -0.13100
F1873       F  0.26412025  0.93018899  0.19198950    -0.13700
C1874       C  0.20853284  0.87523997  0.20664752     0.16100
C1875       C  0.19712714  0.86486794  0.21399284     0.25500
C1876       C  0.19943985  0.85236126  0.21883671    -0.40800
C1877       C  0.21352668  0.85058576  0.21607938     0.32500
C1878       C  0.22492634  0.86103690  0.20874743     0.14200
F1879       F  0.20574764  0.88690586  0.20198948    -0.13100
F1880       F  0.21649056  0.83888505  0.22053656    -0.13600
F1881       F  0.18376242  0.86706664  0.21627434    -0.15900
F1882       F  0.23853579  0.85925093  0.20642631    -0.14500
F1883       F  0.24234260  0.90947318  0.20617252    -0.14500
F1884       F  0.24984993  0.88109493  0.17176288    -0.15900
C1885       C  0.33455290  0.08784155  0.13520124     0.14200
C1886       C  0.34314940  0.07965116  0.13159117     0.01100
C1887       C  0.35463159  0.08711391  0.12367108     0.16100
C1888       C  0.35724664  0.10229334  0.11934656     0.25500
C1889       C  0.34818793  0.11024501  0.12272174    -0.40800
C1890       C  0.33692597  0.10286878  0.13079072     0.32600
C1891       C  0.33970064  0.06306769  0.13585802     0.01200
F1892       F  0.36303457  0.07946896  0.11992420    -0.13100
F1893       F  0.32769798  0.10979512  0.13426571    -0.13700
C1894       C  0.32288049  0.04917316  0.13631242     0.16100
C1895       C  0.31959627  0.03337230  0.13999257     0.25500
C1896       C  0.33308294  0.03103429  0.14311639    -0.40800
C1897       C  0.34988790  0.04494266  0.14278670     0.32500
C1898       C  0.35315065  0.06086123  0.13928388     0.14200
F1899       F  0.30964374  0.05069668  0.13282475    -0.13100
F1900       F  0.36314124  0.04316789  0.14596750    -0.13600
F1901       F  0.30328767  0.02010235  0.13999690    -0.15900
F1902       F  0.36944591  0.07416685  0.13930838    -0.14500
F1903       F  0.32378223  0.08125098  0.14303801    -0.14500
F1904       F  0.36885788  0.10924892  0.11192980    -0.15900
C1905       C  0.39042552  0.93488012  0.12630140     0.14200
C1906       C  0.38334079  0.91854252  0.12208794     0.01100
C1907       C  0.36562403  0.90737289  0.12258969     0.16100
C1908       C  0.35505958  0.91256883  0.12705748     0.25500
C1909       C  0.36208166  0.92898536  0.13120372    -0.40800
C1910       C  0.37989379  0.94003201  0.13088459     0.32600
C1911       C  0.39415307  0.91331539  0.11667609     0.01200
F1912       F  0.35849479  0.89163583  0.11839390    -0.13100
F1913       F  0.38715022  0.95571477  0.13515323    -0.13700
C1914       C  0.39542245  0.89925692  0.11992688     0.16100
C1915       C  0.40404086  0.89312316  0.11418694     0.25500
C1916       C  0.41139198  0.90091063  0.10511497    -0.40800
C1917       C  0.41061757  0.91528777  0.10200888     0.32500
C1918       C  0.40212027  0.92151871  0.10778456     0.14200
F1919       F  0.38809650  0.89135637  0.12858809    -0.13100
F1920       F  0.41776775  0.92300511  0.09328030    -0.13600
F1921       F  0.40484078  0.87930265  0.11732236    -0.15900
F1922       F  0.40103744  0.93511185  0.10450735    -0.14500
F1923       F  0.40754486  0.94580643  0.12599517    -0.14500
F1924       F  0.33790168  0.90183106  0.12690080    -0.15900
C1925       C  0.34481129  0.28086791  0.14088076     0.14200
C1926       C  0.33139914  0.26580069  0.13683134     0.01100
C1927       C  0.31471815  0.26314145  0.13694810     0.16100
C1928       C  0.31151891  0.27549125  0.14096677     0.25500
C1929       C  0.32500102  0.29073618  0.14482207    -0.40800
C1930       C  0.34165343  0.29327547  0.14481482     0.32600
C1931       C  0.33499225  0.25327179  0.13206240     0.01200
F1932       F  0.30158699  0.24868719  0.13302514    -0.13100
F1933       F  0.35489107  0.30781481  0.14859236    -0.13700
C1934       C  0.34172409  0.24487890  0.13758329     0.16100
C1935       C  0.34554292  0.23336847  0.13296633     0.25500
C1936       C  0.34273694  0.23012787  0.12272572    -0.40800
C1937       C  0.33600254  0.23862468  0.11723023     0.32500
C1938       C  0.33213690  0.25004641  0.12187100     0.14200
F1939       F  0.34450068  0.24778121  0.14746583    -0.13100
F1940       F  0.33274204  0.23561736  0.10739445    -0.13600
F1941       F  0.35241663  0.22578330  0.13847662    -0.15900
F1942       F  0.32581461  0.25817934  0.11637481    -0.14500
F1943       F  0.36106985  0.28382686  0.14068469    -0.14500
F1944       F  0.29542424  0.27295056  0.14060829    -0.15900
C1945       C  0.40183256  0.46779292  0.11022128     0.14200
C1946       C  0.38886150  0.46666796  0.11645652     0.01100
C1947       C  0.38551982  0.48021828  0.11676380     0.16100
C1948       C  0.39447654  0.49434543  0.11061010     0.25500
C1949       C  0.40698105  0.49518235  0.10414211    -0.40800
C1950       C  0.41088450  0.48202619  0.10410496     0.32600
C1951       C  0.37836035  0.45114074  0.12237100     0.01200
F1952       F  0.37353396  0.47971217  0.12301548    -0.13100
F1953       F  0.42312023  0.48279523  0.09796788    -0.13700
C1954       C  0.38603535  0.44544936  0.12925930     0.16100
C1955       C  0.37605282  0.43055980  0.13468111     0.25500
C1956       C  0.35824441  0.42146796  0.13348950    -0.40800
C1957       C  0.35051763  0.42723266  0.12670241     0.32500
C1958       C  0.36053645  0.44185524  0.12107790     0.14200
F1959       F  0.40315751  0.45443973  0.13082230    -0.13100
F1960       F  0.33336675  0.41828977  0.12521485    -0.13600
F1961       F  0.38372574  0.42516440  0.14123080    -0.15900
F1962       F  0.35290559  0.44669931  0.11416502    -0.14500
F1963       F  0.40529471  0.45485490  0.10981087    -0.14500
F1964       F  0.39084098  0.50716654  0.11084429    -0.15900
C1965       C  0.74830788  0.09612651  0.13542965     0.14200
C1966       C  0.74168527  0.08062059  0.13023090     0.01100
C1967       C  0.74714149  0.08076014  0.12047186     0.16100
C1968       C  0.75876146  0.09612464  0.11590117     0.25500
C1969       C  0.76528540  0.11169053  0.12103088    -0.40800
C1970       C  0.76011685  0.11153315  0.13089095     0.32600
C1971       C  0.72852084  0.06426823  0.13467709     0.01200
F1972       F  0.74077141  0.06598782  0.11524848    -0.13100
F1973       F  0.76590658  0.12635708  0.13598872    -0.13700
C1974       C  0.71215132  0.06155745  0.13678508     0.16100
C1975       C  0.69898087  0.04534912  0.13959904     0.25500
C1976       C  0.70201831  0.03161008  0.14051457    -0.40800
C1977       C  0.71863585  0.03456714  0.13882214     0.32500
C1978       C  0.73172669  0.05072511  0.13589547     0.14200
F1979       F  0.70873872  0.07445117  0.13571816    -0.13100
F1980       F  0.72204428  0.02162145  0.13948247    -0.13600
F1981       F  0.68324850  0.04310978  0.14142877    -0.15900
F1982       F  0.74749949  0.05308581  0.13402337    -0.14500
F1983       F  0.74325119  0.09635567  0.14486795    -0.14500
F1984       F  0.76372308  0.09574155  0.10646080    -0.15900
C1985       C  0.54142341  0.90566735  0.12382240     0.14200
C1986       C  0.53477143  0.91670982  0.12314426     0.01100
C1987       C  0.54443004  0.93340396  0.12686174     0.16100
C1988       C  0.56064437  0.93913626  0.13092468     0.25500
C1989       C  0.56751136  0.92823756  0.13142164    -0.40800
C1990       C  0.55759164  0.91133047  0.12796386     0.32600
C1991       C  0.51825129  0.91113831  0.11803493     0.01200
F1992       F  0.53810588  0.94417322  0.12657985    -0.13100
F1993       F  0.56380244  0.90046197  0.12816843    -0.13700
C1994       C  0.50308016  0.89686081  0.12138716     0.16100
C1995       C  0.48779548  0.89102971  0.11610309     0.25500
C1996       C  0.48755161  0.89916769  0.10729486    -0.40800
C1997       C  0.50256274  0.91371452  0.10410990     0.32500
C1998       C  0.51775579  0.91973638  0.10947293     0.14200
F1999       F  0.50313106  0.88848210  0.12971464    -0.13100
F2000       F  0.50259173  0.92174974  0.09561577    -0.13600
F2001       F  0.47333650  0.87712401  0.11938789    -0.15900
F2002       F  0.53219138  0.93353551  0.10605797    -0.14500
F2003       F  0.53254621  0.88958436  0.12009677    -0.14500
F2004       F  0.56947765  0.95528977  0.13453709    -0.15900
C2005       C  0.90497982  0.26865506  0.12117821     0.14200
C2006       C  0.91495987  0.26340011  0.12641705     0.01100
C2007       C  0.90818543  0.24592580  0.12837507     0.16100
C2008       C  0.89190884  0.23388206  0.12489019     0.25500
C2009       C  0.88210376  0.23911813  0.11938559    -0.40800
C2010       C  0.88877299  0.25666842  0.11767192     0.32600
C2011       C  0.93260952  0.27620056  0.12949194     0.01200
F2012       F  0.91757820  0.24045910  0.13335620    -0.13100
F2013       F  0.87949935  0.26231593  0.11273295    -0.13700
C2014       C  0.93747613  0.27840340  0.13952157     0.16100
C2015       C  0.95390548  0.29115551  0.14237074     0.25500
C2016       C  0.96575199  0.30198195  0.13523246    -0.40800
C2017       C  0.96091304  0.29949935  0.12517687     0.32500
C2018       C  0.94456650  0.28670612  0.12234706     0.14200
F2019       F  0.92610611  0.26862393  0.14659903    -0.13100
F2020       F  0.97208928  0.30928337  0.11802432    -0.13600
F2021       F  0.95790817  0.29340424  0.15215614    -0.15900
F2022       F  0.94041160  0.28449017  0.11257414    -0.14500
F2023       F  0.91092261  0.28549886  0.11951307    -0.14500
F2024       F  0.88612079  0.21706570  0.12652251    -0.15900
C2025       C  0.10365526  0.49684745  0.11263620     0.14200
C2026       C  0.08612186  0.48478685  0.11187672     0.01100
C2027       C  0.07574363  0.48833889  0.10571099     0.16100
C2028       C  0.08283452  0.50347613  0.10023933     0.25500
C2029       C  0.10036665  0.51528579  0.10086590    -0.40800
C2030       C  0.11071285  0.51199100  0.10716161     0.32600
C2031       C  0.07874868  0.46829784  0.11724869     0.01200
F2032       F  0.05872113  0.47714100  0.10500821    -0.13100
F2033       F  0.12768311  0.52338756  0.10789450    -0.13700
C2034       C  0.08042320  0.46790539  0.12758095     0.16100
C2035       C  0.07358661  0.45231352  0.13259444     0.25500
C2036       C  0.06490619  0.43674649  0.12737050    -0.40800
C2037       C  0.06319061  0.43721449  0.11700743     0.32500
C2038       C  0.07008020  0.45281469  0.11201709     0.14200
F2039       F  0.08841272  0.48265350  0.13286131    -0.13100
F2040       F  0.05538196  0.42261943  0.11159426    -0.13600
F2041       F  0.07509657  0.45253246  0.14260499    -0.15900
F2042       F  0.06868412  0.45279404  0.10199590    -0.14500
F2043       F  0.11403629  0.49372513  0.11843901    -0.14500
F2044       F  0.07267408  0.50652578  0.09419447    -0.15900
C2045       C  0.64357072  0.73805652  0.20323719     0.14200
C2046       C  0.63449175  0.74654578  0.20128077     0.01100
C2047       C  0.62383841  0.74192229  0.19292659     0.16100
C2048       C  0.62232053  0.72904460  0.18657787     0.25500
C2049       C  0.63149309  0.72058133  0.18846188    -0.40800
C2050       C  0.64211852  0.72519533  0.19687456     0.32600
C2051       C  0.63600442  0.76013221  0.20799691     0.01200
F2052       F  0.61518886  0.75017630  0.19079755    -0.13100
F2053       F  0.65074990  0.71696227  0.19910002    -0.13700
C2054       C  0.65180477  0.77509222  0.20936023     0.16100
C2055       C  0.65328810  0.78780847  0.21585414     0.25500
C2056       C  0.63894338  0.78576106  0.22114035    -0.40800
C2057       C  0.62301825  0.77083587  0.21955422     0.32500
C2058       C  0.62161777  0.75815762  0.21307532     0.14200
F2059       F  0.66578620  0.77745276  0.20430584    -0.13100
F2060       F  0.60879821  0.76821922  0.22443560    -0.13600
F2061       F  0.66876754  0.80215692  0.21688376    -0.15900
F2062       F  0.60625192  0.74369074  0.21195053    -0.14500
F2063       F  0.65358194  0.74201221  0.21142851    -0.14500
F2064       F  0.61234436  0.72532017  0.17839388    -0.15900
C2065       C  0.63233368  0.86358089  0.20794361     0.14200
C2066       C  0.64845631  0.87629117  0.20457242     0.01100
C2067       C  0.66318975  0.87791303  0.20900925     0.16100
C2068       C  0.66191465  0.86695902  0.21663832     0.25500
C2069       C  0.64579377  0.85396282  0.21997090    -0.40800
C2070       C  0.63098047  0.85247874  0.21555101     0.32600
C2071       C  0.64991893  0.88753133  0.19623258     0.01200
F2072       F  0.67890868  0.88982664  0.20574387    -0.13100
F2073       F  0.61516332  0.84019280  0.21845845    -0.13700
C2074       C  0.65898171  0.90538532  0.19731907     0.16100
C2075       C  0.65975152  0.91588586  0.18950131     0.25500
C2076       C  0.65133586  0.90866232  0.18049477    -0.40800
C2077       C  0.64291228  0.89081313  0.17931164     0.32500
C2078       C  0.64228281  0.88037643  0.18709137     0.14200
F2079       F  0.66663161  0.91264052  0.20606024    -0.13100
F2080       F  0.63542972  0.88341587  0.17056846    -0.13600
F2081       F  0.66804186  0.93303013  0.19094347    -0.15900
F2082       F  0.63434828  0.86323022  0.18566767    -0.14500
F2083       F  0.61786708  0.86194348  0.20386408    -0.14500
F2084       F  0.67659795  0.86908071  0.22066559    -0.15900
C2085       C  0.10824523  0.34040716  0.21140113     0.14200
C2086       C  0.11401934  0.35539662  0.20581802     0.01100
C2087       C  0.13027794  0.36943675  0.20784475     0.16100
C2088       C  0.14058974  0.36849824  0.21529934     0.25500
C2089       C  0.13483711  0.35345018  0.22092038    -0.40800
C2090       C  0.11846271  0.33945409  0.21888869     0.32600
C2091       C  0.10288499  0.35651969  0.19808206     0.01200
F2092       F  0.13631854  0.38399318  0.20245397    -0.13100
F2093       F  0.11211284  0.32487256  0.22427890    -0.13700
C2094       C  0.09780087  0.36880492  0.19886951     0.16100
C2095       C  0.08724466  0.36988356  0.19165861     0.25500
C2096       C  0.08135182  0.35854291  0.18357025    -0.40800
C2097       C  0.08626047  0.34610357  0.18282918     0.32500
C2098       C  0.09704098  0.34519064  0.18997749     0.14200
F2099       F  0.10275576  0.37952872  0.20677184    -0.13100
F2100       F  0.08108037  0.33519189  0.17501030    -0.13600
F2101       F  0.08233585  0.38169684  0.19275484    -0.15900
F2102       F  0.10208156  0.33347596  0.18887460    -0.14500
F2103       F  0.09248107  0.32675318  0.20974867    -0.14500
F2104       F  0.15635002  0.38222945  0.21683909    -0.15900
C2105       C  0.23858154  0.33549559  0.20028647     0.14200
C2106       C  0.23122889  0.34572964  0.19855188     0.01100
C2107       C  0.23526686  0.35534118  0.18980102     0.16100
C2108       C  0.24658766  0.35491213  0.18294218     0.25500
C2109       C  0.25427883  0.34494606  0.18472129    -0.40800
C2110       C  0.25005901  0.33514740  0.19345765     0.32600
C2111       C  0.21955247  0.34663075  0.20591346     0.01200
F2112       F  0.22808158  0.36505859  0.18783973    -0.13100
F2113       F  0.25757197  0.32581301  0.19562994    -0.13700
C2114       C  0.22358865  0.36229563  0.21028910     0.16100
C2115       C  0.21261808  0.36320708  0.21726026     0.25500
C2116       C  0.19731647  0.34838955  0.22002425    -0.40800
C2117       C  0.19332925  0.33270707  0.21553715     0.32500
C2118       C  0.20431109  0.33188299  0.20856411     0.14200
F2119       F  0.23840949  0.37669862  0.20796025    -0.13100
F2120       F  0.17879181  0.31803194  0.21787715    -0.13600
F2121       F  0.21720835  0.37858571  0.22139738    -0.15900
F2122       F  0.19992509  0.31664663  0.20428929    -0.14500
F2123       F  0.23508741  0.32628334  0.20877035    -0.14500
F2124       F  0.24974251  0.36407291  0.17446558    -0.15900
C2125       C  0.10838054  0.78199288  0.27347359     0.14200
C2126       C  0.10910683  0.76758345  0.27660449     0.01100
C2127       C  0.12122613  0.76419799  0.27231078     0.16100
C2128       C  0.13267156  0.77517652  0.26519456     0.25500
C2129       C  0.13214591  0.78978135  0.26207104    -0.40800
C2130       C  0.11967878  0.79291651  0.26623673     0.32600
C2131       C  0.09756246  0.75616896  0.28447703     0.01200
F2132       F  0.12189102  0.75007998  0.27496188    -0.13100
F2133       F  0.11847253  0.80665776  0.26342381    -0.13700
C2134       C  0.07971243  0.74792434  0.28342153     0.16100
C2135       C  0.06899410  0.73615486  0.29055488     0.25500
C2136       C  0.07595790  0.73225379  0.29881681    -0.40800
C2137       C  0.09383799  0.74106558  0.30001545     0.32500
C2138       C  0.10447358  0.75294088  0.29296391     0.14200
F2139       F  0.07265422  0.75074607  0.27528279    -0.13100
F2140       F  0.10112802  0.73843734  0.30810548    -0.13600
F2141       F  0.05185264  0.72805440  0.28911223    -0.15900
F2142       F  0.12163113  0.76137148  0.29443803    -0.14500
F2143       F  0.09701626  0.78576281  0.27761909    -0.14500
F2144       F  0.14419771  0.77134029  0.26135689    -0.15900
C2145       C  0.92748499  0.65540838  0.33940591     0.14200
C2146       C  0.92361451  0.65375247  0.34958226     0.01100
C2147       C  0.93622222  0.65582378  0.35643304     0.16100
C2148       C  0.95229854  0.65923933  0.35318754     0.25500
C2149       C  0.95624095  0.66100808  0.34301812    -0.40800
C2150       C  0.94372600  0.65918249  0.33615643     0.32600
C2151       C  0.90657808  0.65006184  0.35316708     0.01200
F2152       F  0.93305566  0.65486618  0.36631610    -0.13100
F2153       F  0.94701031  0.66042851  0.32628639    -0.13700
C2154       C  0.89670342  0.63574049  0.35916968     0.16100
C2155       C  0.88143166  0.63307430  0.36336125     0.25500
C2156       C  0.87566100  0.64466852  0.36162853    -0.40800
C2157       C  0.88521074  0.65864622  0.35527964     0.32500
C2158       C  0.90052576  0.66130492  0.35109429     0.14200
F2159       F  0.90187033  0.62428107  0.36096845    -0.13100
F2160       F  0.88019161  0.67021260  0.35347685    -0.13600
F2161       F  0.87215616  0.61895534  0.36899722    -0.15900
F2162       F  0.90981887  0.67527712  0.34534702    -0.14500
F2163       F  0.91539679  0.65294130  0.33260708    -0.14500
F2164       F  0.96418021  0.66128343  0.36003178    -0.15900
C2165       C  0.62284365  0.73630173  0.28585553     0.14200
C2166       C  0.63800259  0.75215541  0.28542133     0.01100
C2167       C  0.65150427  0.75538078  0.29184365     0.16100
C2168       C  0.64987725  0.74294391  0.29860926     0.25500
C2169       C  0.63478204  0.72688905  0.29896461    -0.40800
C2170       C  0.62125929  0.72375937  0.29250139     0.32600
C2171       C  0.63970475  0.76519005  0.27817432     0.01200
F2172       F  0.66618438  0.77072562  0.29168281    -0.13100
F2173       F  0.60665985  0.70836693  0.29231628    -0.13700
C2174       C  0.62810305  0.77119587  0.27827026     0.16100
C2175       C  0.62909329  0.78279333  0.27110589     0.25500
C2176       C  0.64179789  0.78869824  0.26375652    -0.40800
C2177       C  0.65363824  0.78294928  0.26378296     0.32500
C2178       C  0.65256097  0.77125314  0.27092012     0.14200
F2179       F  0.61586128  0.76589470  0.28536378    -0.13100
F2180       F  0.66582689  0.78809969  0.25666165    -0.13600
F2181       F  0.61778532  0.78846500  0.27145595    -0.15900
F2182       F  0.66371517  0.76539163  0.27054397    -0.14500
F2183       F  0.60969059  0.73277874  0.27962254    -0.14500
F2184       F  0.66294055  0.74686135  0.30497859    -0.15900
C2185       C  0.73418320  0.65852771  0.36443497     0.14200
C2186       C  0.73169019  0.65759380  0.35415276     0.01100
C2187       C  0.74216411  0.65425384  0.34799899     0.16100
C2188       C  0.75464394  0.65132080  0.35210443     0.25500
C2189       C  0.75669914  0.65153219  0.36246013    -0.40800
C2190       C  0.74656364  0.65553003  0.36856301     0.32600
C2191       C  0.71759554  0.65926533  0.34990277     0.01200
F2192       F  0.74010992  0.65360062  0.33801039    -0.13100
F2193       F  0.74862925  0.65662257  0.37854957    -0.13700
C2194       C  0.71752843  0.67468298  0.35072231     0.16100
C2195       C  0.70404636  0.67611551  0.34674229     0.25500
C2196       C  0.69026713  0.66201869  0.34212789    -0.40800
C2197       C  0.69013299  0.64646451  0.34153995     0.32500
C2198       C  0.70381507  0.64516075  0.34530070     0.14200
F2199       F  0.73046574  0.68828559  0.35543384    -0.13100
F2200       F  0.67680996  0.63258161  0.33726979    -0.13600
F2201       F  0.70407610  0.69103791  0.34776596    -0.15900
F2202       F  0.70343207  0.63000500  0.34470689    -0.14500
F2203       F  0.72421929  0.66179344  0.37051260    -0.14500
F2204       F  0.76412512  0.64752621  0.34595454    -0.15900
C2205       C  0.53455697  0.59730568  0.35852445     0.14200
C2206       C  0.52545469  0.60533711  0.36147317     0.01100
C2207       C  0.53133791  0.62230946  0.35862558     0.16100
C2208       C  0.54624383  0.63120709  0.35299877     0.25500
C2209       C  0.55553140  0.62326175  0.35016339    -0.40800
C2210       C  0.54947090  0.60618465  0.35290344     0.32600
C2211       C  0.50969280  0.59595185  0.36741620     0.01200
F2212       F  0.52281083  0.63036454  0.36147937    -0.13100
F2213       F  0.55772626  0.59793757  0.34989773    -0.13700
C2214       C  0.51042605  0.59115363  0.37722948     0.16100
C2215       C  0.49550797  0.58268536  0.38290828     0.25500
C2216       C  0.47967814  0.57880418  0.37880639    -0.40800
C2217       C  0.47894062  0.58336001  0.36895672     0.32500
C2218       C  0.49385125  0.59195062  0.36331566     0.14200
F2219       F  0.52565355  0.59514774  0.38138224    -0.13100
F2220       F  0.46379728  0.57987765  0.36491395    -0.13600
F2221       F  0.49650888  0.57857942  0.39246363    -0.15900
F2222       F  0.49287334  0.59644509  0.35384784    -0.14500
F2223       F  0.52879680  0.58074868  0.36094203    -0.14500
F2224       F  0.55189033  0.64776132  0.35062355    -0.15900
C2225       C  0.31321221  0.50582928  0.43211075     0.14200
C2226       C  0.32864390  0.50962490  0.43671518     0.01100
C2227       C  0.32863324  0.50663813  0.44695663     0.16100
C2228       C  0.31352813  0.50029082  0.45250814     0.25500
C2229       C  0.29816346  0.49694730  0.44793519    -0.40800
C2230       C  0.29818481  0.49959698  0.43763217     0.32600
C2231       C  0.34467599  0.51690382  0.43079996     0.01200
F2232       F  0.34340173  0.51050409  0.45166357    -0.13100
F2233       F  0.28357054  0.49592979  0.43280942    -0.13700
C2234       C  0.35011377  0.53190970  0.42522094     0.16100
C2235       C  0.36481982  0.53845579  0.41935428     0.25500
C2236       C  0.37439668  0.53017047  0.41897638    -0.40800
C2237       C  0.36918074  0.51536203  0.42464567     0.32500
C2238       C  0.35441821  0.50874035  0.43048419     0.14200
F2239       F  0.34126708  0.54034895  0.42554512    -0.13100
F2240       F  0.37847491  0.50738159  0.42453618    -0.13600
F2241       F  0.36973112  0.55288704  0.41401091    -0.15900
F2242       F  0.34943550  0.49414082  0.43565883    -0.14500
F2243       F  0.31265126  0.50805742  0.42219412    -0.14500
F2244       F  0.31415219  0.49820582  0.46242634    -0.15900
C2245       C  0.09475415  0.61110405  0.37043848     0.14200
C2246       C  0.07735873  0.60338821  0.36797674     0.01100
C2247       C  0.06606939  0.58666189  0.37122408     0.16100
C2248       C  0.07199345  0.57800158  0.37712539     0.25500
C2249       C  0.08929349  0.58592421  0.37984908    -0.40800
C2250       C  0.10069007  0.60242339  0.37629746     0.32600
C2251       C  0.07088013  0.61314639  0.36248839     0.01200
F2252       F  0.04927241  0.57880527  0.36875263    -0.13100
F2253       F  0.11749133  0.61029801  0.37876393    -0.13700
C2254       C  0.07660936  0.61910997  0.35285164     0.16100
C2255       C  0.07074973  0.62870191  0.34780849     0.25500
C2256       C  0.05905001  0.63253466  0.35233808    -0.40800
C2257       C  0.05347001  0.62662715  0.36204763     0.32500
C2258       C  0.05930434  0.61701371  0.36704383     0.14200
F2259       F  0.08770092  0.61540884  0.34826914    -0.13100
F2260       F  0.04281476  0.63062823  0.36688991    -0.13600
F2261       F  0.07620434  0.63381512  0.33840265    -0.15900
F2262       F  0.05401483  0.61187469  0.37647714    -0.14500
F2263       F  0.10585975  0.62731781  0.36749476    -0.14500
F2264       F  0.06077467  0.56206666  0.38043230    -0.15900
C2265       C  0.13587934  0.62949294  0.43600970     0.14200
C2266       C  0.15258200  0.64201718  0.43331733     0.01100
C2267       C  0.16069304  0.63869425  0.42544934     0.16100
C2268       C  0.15223124  0.62331029  0.42028974     0.25500
C2269       C  0.13575455  0.61071540  0.42310759    -0.40800
C2270       C  0.12759813  0.61383844  0.43099829     0.32600
C2271       C  0.16191406  0.65841623  0.43875246     0.01200
F2272       F  0.17700266  0.65022956  0.42288396    -0.13100
F2273       F  0.11157605  0.60179611  0.43373783    -0.13700
C2274       C  0.16417891  0.65863417  0.44907660     0.16100
C2275       C  0.17476742  0.67401187  0.45398424     0.25500
C2276       C  0.18349995  0.68934122  0.44862416    -0.40800
C2277       C  0.18089484  0.68919421  0.43835516     0.32500
C2278       C  0.16992779  0.67392032  0.43349938     0.14200
F2279       F  0.15686977  0.64387815  0.45434609    -0.13100
F2280       F  0.18889758  0.70385901  0.43301557    -0.13600
F2281       F  0.17727882  0.67375853  0.46388743    -0.15900
F2282       F  0.16728481  0.67422319  0.42361203    -0.14500
F2283       F  0.12750991  0.63252139  0.44335846    -0.14500
F2284       F  0.16018803  0.62056216  0.41258470    -0.15900
C2285       C  0.15884769  0.52556522  0.42570093     0.14200
C2286       C  0.15620236  0.52393668  0.43598229     0.01100
C2287       C  0.14428915  0.52758967  0.44027465     0.16100
C2288       C  0.13514004  0.53288411  0.43433742     0.25500
C2289       C  0.13794685  0.53476983  0.42404910    -0.40800
C2290       C  0.14980291  0.53097086  0.41976704     0.32600
C2291       C  0.16568512  0.51807699  0.44216497     0.01200
F2292       F  0.14176544  0.52629760  0.45022568    -0.13100
F2293       F  0.15279865  0.53277283  0.40986246    -0.13700
C2294       C  0.18311543  0.52896441  0.44409169     0.16100
C2295       C  0.19235857  0.52299261  0.44936497     0.25500
C2296       C  0.18427244  0.50602153  0.45279412    -0.40800
C2297       C  0.16670111  0.49526947  0.45103615     0.32500
C2298       C  0.15749644  0.50127246  0.44573968     0.14200
F2299       F  0.19119124  0.54532674  0.44077647    -0.13100
F2300       F  0.15863993  0.47868560  0.45393527    -0.13600
F2301       F  0.20921060  0.53382220  0.45113663    -0.15900
F2302       F  0.14072928  0.49048711  0.44372661    -0.14500
F2303       F  0.17017473  0.52185768  0.42143289    -0.14500
F2304       F  0.12366858  0.53637177  0.43861379    -0.15900
C2305       C  0.45845969  0.65346152  0.44185458     0.14200
C2306       C  0.47064408  0.64979151  0.43798470     0.01100
C2307       C  0.48798734  0.66044356  0.44032090     0.16100
C2308       C  0.49312085  0.67494552  0.44620441     0.25500
C2309       C  0.48096391  0.67897082  0.44971112    -0.40800
C2310       C  0.46359165  0.66798455  0.44765400     0.32600
C2311       C  0.46512296  0.63505194  0.43131813     0.01200
F2312       F  0.49996395  0.65718844  0.43655610    -0.13100
F2313       F  0.45160201  0.67133944  0.45128236    -0.13700
C2314       C  0.45689729  0.63435241  0.42234724     0.16100
C2315       C  0.45038760  0.61984045  0.41637571     0.25500
C2316       C  0.45221505  0.60596516  0.41924708    -0.40800
C2317       C  0.46091914  0.60685556  0.42804096     0.32500
C2318       C  0.46726844  0.62130319  0.43408261     0.14200
F2319       F  0.45511126  0.64771413  0.41942118    -0.13100
F2320       F  0.46278331  0.59350661  0.43088134    -0.13600
F2321       F  0.44219271  0.61922415  0.40781998    -0.15900
F2322       F  0.47495779  0.62164795  0.44278734    -0.14500
F2323       F  0.44158543  0.64299402  0.43994313    -0.14500
F2324       F  0.50999956  0.68553592  0.44802176    -0.15900
C2325       C  0.47052842  0.81750243  0.44892399     0.14200
C2326       C  0.47366711  0.82008896  0.43867137     0.01100
C2327       C  0.48230608  0.81284384  0.43388458     0.16100
C2328       C  0.48748293  0.80300774  0.43919127     0.25500
C2329       C  0.48430204  0.80037913  0.44940011    -0.40800
C2330       C  0.47599316  0.80786272  0.45427642     0.32600
C2331       C  0.46798539  0.83028150  0.43290290     0.01200
F2332       F  0.48588260  0.81542787  0.42405777    -0.13100
F2333       F  0.47252262  0.80521990  0.46411413    -0.13700
C2334       C  0.47333352  0.84725807  0.43557351     0.16100
C2335       C  0.46830213  0.85696907  0.42993775     0.25500
C2336       C  0.45812939  0.84994686  0.42146240    -0.40800
C2337       C  0.45279608  0.83301110  0.41878416     0.32500
C2338       C  0.45752416  0.82319677  0.42450930     0.14200
F2339       F  0.48362444  0.85449204  0.44355695    -0.13100
F2340       F  0.44258200  0.82586238  0.41076133    -0.13600
F2341       F  0.47321703  0.87316651  0.43278084    -0.15900
F2342       F  0.45158025  0.80663626  0.42198415    -0.14500
F2343       F  0.46166458  0.82380803  0.45367529    -0.14500
F2344       F  0.49590115  0.79626455  0.43438058    -0.15900
C2345       C  0.35413606  0.83418207  0.42359972     0.14200
C2346       C  0.35493830  0.83635000  0.43395285     0.01100
C2347       C  0.37043704  0.84849859  0.43834422     0.16100
C2348       C  0.38490644  0.85816877  0.43248708     0.25500
C2349       C  0.38418530  0.85557840  0.42218533    -0.40800
C2350       C  0.36866154  0.84363514  0.41778101     0.32600
C2351       C  0.33962187  0.82575348  0.44010675     0.01200
F2352       F  0.37175636  0.85044426  0.44833888    -0.13100
F2353       F  0.36777223  0.84065488  0.40787583    -0.13700
C2354       C  0.33113743  0.80786761  0.43942952     0.16100
C2355       C  0.31595743  0.79784127  0.44460254     0.25500
C2356       C  0.30889209  0.80548281  0.45058561    -0.40800
C2357       C  0.31782502  0.82338682  0.45161122     0.32500
C2358       C  0.33305035  0.83341245  0.44641626     0.14200
F2359       F  0.33760156  0.80006339  0.43375797    -0.13100
F2360       F  0.31147339  0.83131448  0.45724971    -0.13600
F2361       F  0.30832901  0.78060506  0.44383058    -0.15900
F2362       F  0.34100658  0.85066877  0.44723513    -0.14500
F2363       F  0.33929795  0.82273631  0.41912637    -0.14500
F2364       F  0.39984549  0.86954115  0.43689235    -0.15900
C2365       C  0.23316712  0.89600370  0.29097713     0.14200
C2366       C  0.23674283  0.88828553  0.28300579     0.01100
C2367       C  0.25367979  0.89217328  0.28145552     0.16100
C2368       C  0.26674500  0.90334185  0.28781200     0.25500
C2369       C  0.26321791  0.91108515  0.29579040    -0.40800
C2370       C  0.24630668  0.90740255  0.29727008     0.32600
C2371       C  0.22296925  0.87611960  0.27628267     0.01200
F2372       F  0.25763593  0.88534323  0.27364781    -0.13100
F2373       F  0.24236515  0.91433516  0.30502450    -0.13700
C2374       C  0.21267068  0.88100048  0.27104679     0.16100
C2375       C  0.20063392  0.86989940  0.26413483     0.25500
C2376       C  0.19883945  0.85375817  0.26221929    -0.40800
C2377       C  0.20888546  0.84878270  0.26769449     0.32500
C2378       C  0.22064729  0.85975813  0.27470024     0.14200
F2379       F  0.21471106  0.89678381  0.27234275    -0.13100
F2380       F  0.20737525  0.83323504  0.26631211    -0.13600
F2381       F  0.19117607  0.87523802  0.25910529    -0.15900
F2382       F  0.22983809  0.85436947  0.27996602    -0.14500
F2383       F  0.21687718  0.89212944  0.29284162    -0.14500
F2384       F  0.28295600  0.90694342  0.28597637    -0.15900
C2385       C  0.34264137  0.05739184  0.34804657     0.14200
C2386       C  0.32771618  0.05764366  0.35056298     0.01100
C2387       C  0.31177807  0.04288828  0.34897796     0.16100
C2388       C  0.31079222  0.02811439  0.34498338     0.25500
C2389       C  0.32575089  0.02780438  0.34251585    -0.40800
C2390       C  0.34168645  0.04265253  0.34406321     0.32600
C2391       C  0.32890808  0.07322292  0.35502203     0.01200
F2392       F  0.29714729  0.04282953  0.35124930    -0.13100
F2393       F  0.35638544  0.04305840  0.34152539    -0.13700
C2394       C  0.33650989  0.08871401  0.34976288     0.16100
C2395       C  0.33854073  0.10363933  0.35418160     0.25500
C2396       C  0.33319669  0.10339566  0.36400747    -0.40800
C2397       C  0.32530646  0.08779250  0.36919119     0.32500
C2398       C  0.32310385  0.07285328  0.36472278     0.14200
F2399       F  0.34206629  0.08938835  0.34034285    -0.13100
F2400       F  0.31954505  0.08693563  0.37857603    -0.13600
F2401       F  0.34637815  0.11845175  0.34897615    -0.15900
F2402       F  0.31573109  0.05809050  0.36998639    -0.14500
F2403       F  0.35820939  0.07138706  0.34961882    -0.14500
F2404       F  0.29520905  0.01395567  0.34382608    -0.15900
C2405       C  0.37878604  0.93116077  0.36315917     0.14200
C2406       C  0.38322066  0.91975264  0.35896988     0.01100
C2407       C  0.37891697  0.91469826  0.34905773     0.16100
C2408       C  0.37054386  0.92121530  0.34334876     0.25500
C2409       C  0.36611367  0.93275212  0.34751597    -0.40800
C2410       C  0.37019580  0.93748253  0.35754321     0.32600
C2411       C  0.39204474  0.91295038  0.36507998     0.01200
F2412       F  0.38306766  0.90363746  0.34487083    -0.13100
F2413       F  0.36535727  0.94774422  0.36208363    -0.13700
C2414       C  0.38340828  0.89578210  0.36806674     0.16100
C2415       C  0.39132261  0.88964202  0.37443323     0.25500
C2416       C  0.40796054  0.90062029  0.37796905    -0.40800
C2417       C  0.41675489  0.91769902  0.37475421     0.32500
C2418       C  0.40885517  0.92380692  0.36835205     0.14200
F2419       F  0.36714408  0.88509626  0.36501027    -0.13100
F2420       F  0.43292409  0.92848923  0.37792050    -0.13600
F2421       F  0.38273068  0.87298975  0.37720603    -0.15900
F2422       F  0.41758152  0.94033324  0.36533792    -0.14500
F2423       F  0.38242073  0.93585760  0.37281002    -0.14500
F2424       F  0.36717412  0.91652441  0.33369000    -0.15900
C2425       C  0.23098748  0.35003462  0.29387579     0.14200
C2426       C  0.22895692  0.34090906  0.28509265     0.01100
C2427       C  0.23736904  0.33152655  0.28404626     0.16100
C2428       C  0.24841954  0.33204597  0.29149044     0.25500
C2429       C  0.25120981  0.34201010  0.30005166    -0.40800
C2430       C  0.24204641  0.35062973  0.30128236     0.32600
C2431       C  0.21856249  0.34187845  0.27694372     0.01200
F2432       F  0.23537020  0.32239936  0.27566929    -0.13100
F2433       F  0.24367062  0.35951498  0.30970962    -0.13700
C2434       C  0.22381182  0.35753214  0.27220621     0.16100
C2435       C  0.21342582  0.35900408  0.26506558     0.25500
C2436       C  0.19751934  0.34475889  0.26249414    -0.40800
C2437       C  0.19260146  0.32891817  0.26706499     0.32500
C2438       C  0.20303294  0.32753751  0.27422962     0.14200
F2439       F  0.23904827  0.37145227  0.27454846    -0.13100
F2440       F  0.17746614  0.31480286  0.26484028    -0.13600
F2441       F  0.21902651  0.37440744  0.26068734    -0.15900
F2442       F  0.19768934  0.31231798  0.27878141    -0.14500
F2443       F  0.22223444  0.35841444  0.29524798    -0.14500
F2444       F  0.25701689  0.32351840  0.29009595    -0.15900
C2445       C  0.33949568  0.25634992  0.36444625     0.14200
C2446       C  0.32813767  0.25241312  0.35645755     0.01100
C2447       C  0.31980899  0.23570220  0.35262971     0.16100
C2448       C  0.32253253  0.22310820  0.35681788     0.25500
C2449       C  0.33386578  0.22701524  0.36484794    -0.40800
C2450       C  0.34245787  0.24387698  0.36852559     0.32600
C2451       C  0.32492557  0.26570562  0.35220179     0.01200
F2452       F  0.30908597  0.23157560  0.34476280    -0.13100
F2453       F  0.35400769  0.24848753  0.37598689    -0.13700
C2454       C  0.33863456  0.28152581  0.34913642     0.16100
C2455       C  0.33569646  0.29428830  0.34552181     0.25500
C2456       C  0.31897225  0.29143221  0.34473842    -0.40800
C2457       C  0.30520882  0.27547828  0.34754136     0.32500
C2458       C  0.30817027  0.26280627  0.35134864     0.14200
F2459       F  0.35491910  0.28459302  0.34954468    -0.13100
F2460       F  0.28893005  0.27239946  0.34702048    -0.13600
F2461       F  0.34923829  0.30936080  0.34259084    -0.15900
F2462       F  0.29468506  0.24791847  0.35454611    -0.14500
F2463       F  0.34752433  0.27225395  0.36846206    -0.14500
F2464       F  0.31363626  0.20698201  0.35317992    -0.15900
C2465       C  0.35781334  0.45101615  0.35883487     0.14200
C2466       C  0.37506329  0.45696103  0.36098461     0.01100
C2467       C  0.38252616  0.44737113  0.35796178     0.16100
C2468       C  0.37277566  0.43185472  0.35298370     0.25500
C2469       C  0.35539209  0.42572386  0.35091922    -0.40800
C2470       C  0.34803617  0.43552180  0.35385621     0.32600
C2471       C  0.38497960  0.47276712  0.36680445     0.01200
F2472       F  0.39929915  0.45312328  0.35978670    -0.13100
F2473       F  0.33119535  0.42977213  0.35231416    -0.13700
C2474       C  0.38987148  0.47188694  0.37657000     0.16100
C2475       C  0.39815158  0.48664346  0.38237519     0.25500
C2476       C  0.40178432  0.50246279  0.37844079    -0.40800
C2477       C  0.39725238  0.50342069  0.36861263     0.32500
C2478       C  0.38881487  0.48863780  0.36283579     0.14200
F2479       F  0.38604852  0.45662670  0.38057754    -0.13100
F2480       F  0.40059041  0.51862147  0.36474055    -0.13600
F2481       F  0.40227958  0.48548843  0.39190446    -0.15900
F2482       F  0.38422066  0.48974788  0.35340936    -0.14500
F2483       F  0.35030502  0.45998278  0.36185960    -0.14500
F2484       F  0.38043378  0.42299910  0.35003210    -0.15900
C2485       C  0.63040782  0.89521095  0.28168965     0.14200
C2486       C  0.64472995  0.89302951  0.28186867     0.01100
C2487       C  0.65766431  0.90202562  0.28888591     0.16100
C2488       C  0.65622225  0.91284234  0.29571616     0.25500
C2489       C  0.64172350  0.91470555  0.29570893    -0.40800
C2490       C  0.62884057  0.90584151  0.28861400     0.32600
C2491       C  0.64559451  0.88043730  0.27525188     0.01200
F2492       F  0.67127646  0.89962392  0.28946088    -0.13100
F2493       F  0.61472891  0.90746462  0.28838969    -0.13700
C2494       C  0.65935923  0.88536457  0.26869289     0.16100
C2495       C  0.66001853  0.87325914  0.26251539     0.25500
C2496       C  0.64677170  0.85609877  0.26272673    -0.40800
C2497       C  0.63335264  0.85115962  0.26954510     0.32500
C2498       C  0.63276314  0.86320047  0.27572247     0.14200
F2499       F  0.67187415  0.90198082  0.26806452    -0.13100
F2500       F  0.62082638  0.83456610  0.27030566    -0.13600
F2501       F  0.67321505  0.87845632  0.25606823    -0.15900
F2502       F  0.61969841  0.85797565  0.28226819    -0.14500
F2503       F  0.61785740  0.88689074  0.27486652    -0.14500
F2504       F  0.66849334  0.92063388  0.30274101    -0.15900
C2505       C  0.73890460  0.07789333  0.36656600     0.14200
C2506       C  0.73411596  0.07445819  0.35658840     0.01100
C2507       C  0.74188174  0.08757286  0.34954854     0.16100
C2508       C  0.75383434  0.10417908  0.35253342     0.25500
C2509       C  0.75814430  0.10779949  0.36261335    -0.40800
C2510       C  0.75089168  0.09440144  0.36955559     0.32600
C2511       C  0.72038162  0.05737636  0.35361132     0.01200
F2512       F  0.73731659  0.08440510  0.33985689    -0.13100
F2513       F  0.75541278  0.09727565  0.37926210    -0.13700
C2514       C  0.70339729  0.05206932  0.35606140     0.16100
C2515       C  0.69020944  0.03611823  0.35297084     0.25500
C2516       C  0.69384642  0.02508790  0.34744587    -0.40800
C2517       C  0.71102432  0.03039022  0.34523571     0.32500
C2518       C  0.72414636  0.04643376  0.34826121     0.14200
F2519       F  0.69957694  0.06254562  0.36127544    -0.13100
F2520       F  0.71523967  0.01993485  0.34035507    -0.13600
F2521       F  0.67389740  0.03183008  0.35511484    -0.15900
F2522       F  0.74059059  0.05123355  0.34609111    -0.14500
F2523       F  0.73180126  0.06525683  0.37342712    -0.14500
F2524       F  0.76041498  0.11682276  0.34566254    -0.15900
C2525       C  0.54264305  0.92006852  0.36675423     0.14200
C2526       C  0.52791892  0.91243944  0.36084526     0.01100
C2527       C  0.52930187  0.91015117  0.35067584     0.16100
C2528       C  0.54537234  0.91579052  0.34643267     0.25500
C2529       C  0.56021333  0.92362236  0.35236003    -0.40800
C2530       C  0.55863168  0.92555203  0.36257876     0.32600
C2531       C  0.51124816  0.90674739  0.36554994     0.01200
F2532       F  0.51515772  0.90276066  0.34485174    -0.13100
F2533       F  0.57249835  0.93230972  0.36861926    -0.13700
C2534       C  0.50763501  0.91887605  0.36958526     0.16100
C2535       C  0.49335883  0.91367491  0.37563513     0.25500
C2536       C  0.48263497  0.89629563  0.37778969    -0.40800
C2537       C  0.48580954  0.88410383  0.37338002     0.32500
C2538       C  0.50001447  0.88930747  0.36724524     0.14200
F2539       F  0.51832204  0.93578813  0.36794013    -0.13100
F2540       F  0.47543108  0.86723281  0.37528206    -0.13600
F2541       F  0.49033740  0.92561018  0.37970755    -0.15900
F2542       F  0.50333322  0.87742945  0.36339295    -0.14500
F2543       F  0.54145049  0.92192213  0.37665674    -0.14500
F2544       F  0.54642221  0.91407874  0.33650551    -0.15900
C2545       C  0.11349703  0.33286255  0.27765714     0.14200
C2546       C  0.11366544  0.34778850  0.28060971     0.01100
C2547       C  0.12480507  0.36325455  0.27587117     0.16100
C2548       C  0.13545742  0.36377856  0.26817481     0.25500
C2549       C  0.13517221  0.34877058  0.26504160    -0.40800
C2550       C  0.12413438  0.33331183  0.26998233     0.32600
C2551       C  0.10200985  0.34722122  0.28851295     0.01200
F2552       F  0.12507718  0.37782795  0.27856916    -0.13100
F2553       F  0.12370792  0.31857913  0.26749360    -0.13700
C2554       C  0.10846937  0.35452678  0.29782986     0.16100
C2555       C  0.09757179  0.35472349  0.30512875     0.25500
C2556       C  0.07999223  0.34768906  0.30321832    -0.40800
C2557       C  0.07350010  0.34003457  0.29394195     0.32500
C2558       C  0.08442263  0.33978803  0.28666665     0.14200
F2559       F  0.12536282  0.36146553  0.29985079    -0.13100
F2560       F  0.05674234  0.33355922  0.29171964    -0.13600
F2561       F  0.10420444  0.36164547  0.31411087    -0.15900
F2562       F  0.07793372  0.33281977  0.27767267    -0.14500
F2563       F  0.10310334  0.31783790  0.28228981    -0.14500
F2564       F  0.14577221  0.37895417  0.26367716    -0.15900
C2565       C  0.93609476  0.26903484  0.34707398     0.14200
C2566       C  0.92483180  0.27362043  0.35130629     0.01100
C2567       C  0.93000401  0.29090840  0.35249904     0.16100
C2568       C  0.94621757  0.30353436  0.34945198     0.25500
C2569       C  0.95780408  0.29909816  0.34534360    -0.40800
C2570       C  0.95252000  0.28164286  0.34421248     0.32600
C2571       C  0.90779645  0.26045302  0.35475722     0.01200
F2572       F  0.91921190  0.29555680  0.35654720    -0.13100
F2573       F  0.96338269  0.27668082  0.34069574    -0.13700
C2574       C  0.90395307  0.25896550  0.36489415     0.16100
C2575       C  0.88771620  0.24693415  0.36823076     0.25500
C2576       C  0.87488677  0.23635308  0.36143866    -0.40800
C2577       C  0.87877841  0.23793801  0.35125836     0.32500
C2578       C  0.89517105  0.24981259  0.34795884     0.14200
F2579       F  0.91601379  0.26915861  0.37157999    -0.13100
F2580       F  0.86656993  0.22853106  0.34445816    -0.13600
F2581       F  0.88474352  0.24547757  0.37813739    -0.15900
F2582       F  0.89857646  0.25134355  0.33809917    -0.14500
F2583       F  0.93133765  0.25232006  0.34599373    -0.14500
F2584       F  0.95031329  0.32007907  0.35035133    -0.15900
C2585       C  0.07977116  0.46119491  0.35552369     0.14200
C2586       C  0.07398350  0.46216700  0.36501791     0.01100
C2587       C  0.06303668  0.44704247  0.37010932     0.16100
C2588       C  0.05757820  0.43116488  0.36568532     0.25500
C2589       C  0.06281921  0.43010791  0.35601148    -0.40800
C2590       C  0.07418625  0.44531898  0.35102847     0.32600
C2591       C  0.07987371  0.47888794  0.36983938     0.01200
F2592       F  0.05801554  0.44766799  0.37950374    -0.13100
F2593       F  0.07953649  0.44492065  0.34169432    -0.13700
C2594       C  0.06812544  0.48400641  0.37257753     0.16100
C2595       C  0.07356560  0.49909758  0.37796262     0.25500
C2596       C  0.09081485  0.50922831  0.38068695    -0.40800
C2597       C  0.10264053  0.50445327  0.37755972     0.32500
C2598       C  0.09720025  0.48937326  0.37222085     0.14200
F2599       F  0.05135559  0.47421983  0.37017549    -0.13100
F2600       F  0.11938198  0.51409111  0.38005061    -0.13600
F2601       F  0.06193048  0.50350761  0.38083503    -0.15900
F2602       F  0.10872149  0.48457055  0.36978272    -0.14500
F2603       F  0.09065424  0.47565988  0.35054810    -0.14500
F2604       F  0.04760599  0.41683535  0.37101741    -0.15900
C2605       C  0.20916992  0.77871062  0.95345483     0.14200
C2606       C  0.21145801  0.79509020  0.95213805     0.01100
C2607       C  0.21959396  0.80741311  0.95959292     0.16100
C2608       C  0.22514092  0.80329259  0.96833152     0.25500
C2609       C  0.22250315  0.78672667  0.96976280    -0.40800
C2610       C  0.21453173  0.77451563  0.96219834     0.32600
C2611       C  0.20518622  0.79907608  0.94295863     0.01200
F2612       F  0.22180050  0.82329510  0.95849621    -0.13100
F2613       F  0.21222304  0.75857819  0.96317291    -0.13700
C2614       C  0.18758581  0.79213043  0.94140517     0.16100
C2615       C  0.18147950  0.79463137  0.93238588     0.25500
C2616       C  0.19289171  0.80397257  0.92470616    -0.40800
C2617       C  0.21058044  0.81118987  0.92637984     0.32500
C2618       C  0.21664692  0.80883324  0.93544800     0.14200
F2619       F  0.17631384  0.78287253  0.94864814    -0.13100
F2620       F  0.22202102  0.81990265  0.91909941    -0.13600
F2621       F  0.16442969  0.78816539  0.93124266    -0.15900
F2622       F  0.23370518  0.81557432  0.93677857    -0.14500
F2623       F  0.20184882  0.76680750  0.94618945    -0.14500
F2624       F  0.23245218  0.81528916  0.97554499    -0.15900
C2625       C  0.25283790  0.94650507  0.84888062     0.14200
C2626       C  0.25501863  0.93237925  0.84723927     0.01100
C2627       C  0.26991453  0.93481054  0.84253521     0.16100
C2628       C  0.28273477  0.95116948  0.83989471     0.25500
C2629       C  0.28079216  0.96532887  0.84181101    -0.40800
C2630       C  0.26561993  0.96288798  0.84612148     0.32600
C2631       C  0.24246925  0.91538784  0.85115270     0.01200
F2632       F  0.27213887  0.92133716  0.84062347    -0.13100
F2633       F  0.26359389  0.97644222  0.84816479    -0.13700
C2634       C  0.22515975  0.90751553  0.84847988     0.16100
C2635       C  0.21322933  0.89199335  0.85279702     0.25500
C2636       C  0.21847918  0.88404328  0.85982926    -0.40800
C2637       C  0.23600285  0.89163506  0.86209026     0.32500
C2638       C  0.24779053  0.90723364  0.85791450     0.14200
F2639       F  0.21979558  0.91495401  0.84174944    -0.13100
F2640       F  0.24190498  0.88396741  0.86829026    -0.13600
F2641       F  0.19652487  0.88516032  0.85033469    -0.15900
F2642       F  0.26440888  0.91466101  0.86074127    -0.14500
F2643       F  0.23874017  0.94454486  0.85361717    -0.14500
F2644       F  0.29705987  0.95319610  0.83541775    -0.15900
C2645       C  0.04828871  0.70221391  0.85147001     0.14200
C2646       C  0.05310493  0.71919051  0.84931015     0.01100
C2647       C  0.04199083  0.72263197  0.84385836     0.16100
C2648       C  0.02591372  0.70930857  0.84097345     0.25500
C2649       C  0.02077086  0.69223167  0.84337946    -0.40800
C2650       C  0.03235819  0.68884900  0.84848304     0.32600
C2651       C  0.06904667  0.73327581  0.85353473     0.01200
F2652       F  0.04637360  0.73899068  0.84176488    -0.13100
F2653       F  0.02837354  0.67261674  0.85060028    -0.13700
C2654       C  0.08283233  0.74417099  0.84744616     0.16100
C2655       C  0.09807130  0.75701590  0.85166402     0.25500
C2656       C  0.09966081  0.75912602  0.86204182    -0.40800
C2657       C  0.08554839  0.74858808  0.86804168     0.32500
C2658       C  0.07045602  0.73572740  0.86383105     0.14200
F2659       F  0.08167484  0.74205896  0.83745812    -0.13100
F2660       F  0.08616969  0.75102087  0.87799125    -0.13600
F2661       F  0.11140032  0.76696094  0.84562201    -0.15900
F2662       F  0.05706549  0.72570715  0.86981668    -0.14500
F2663       F  0.05899263  0.69861428  0.85661427    -0.14500
F2664       F  0.01509487  0.71330800  0.83632986    -0.15900
C2665       C  0.43105780  0.22634140  0.02843179     0.14200
C2666       C  0.41940316  0.20925149  0.03074430     0.01100
C2667       C  0.41581276  0.19647096  0.02372180     0.16100
C2668       C  0.42372550  0.20070723  0.01445048     0.25500
C2669       C  0.43549555  0.21783804  0.01208769    -0.40800
C2670       C  0.43903891  0.23062886  0.01916935     0.32600
C2671       C  0.41025767  0.20475105  0.04028162     0.01200
F2672       F  0.40425762  0.17991839  0.02576951    -0.13100
F2673       F  0.45053910  0.24723584  0.01724611    -0.13700
C2674       C  0.39778091  0.20924040  0.04210731     0.16100
C2675       C  0.38836680  0.20423296  0.05089530     0.25500
C2676       C  0.39134095  0.19466791  0.05802378    -0.40800
C2677       C  0.40400824  0.19032072  0.05618464     0.32500
C2678       C  0.41338965  0.19534479  0.04737867     0.14200
F2679       F  0.39442822  0.21810793  0.03523083    -0.13100
F2680       F  0.40768263  0.18162537  0.06300632    -0.13600
F2681       F  0.37596348  0.20826713  0.05226105    -0.15900
F2682       F  0.42568355  0.19120888  0.04581533    -0.14500
F2683       F  0.43482080  0.23884041  0.03519947    -0.14500
F2684       F  0.41937743  0.18809847  0.00767584    -0.15900
C2685       C  0.51145178  0.36544735  0.93576706     0.14200
C2686       C  0.50963246  0.35079925  0.93103628     0.01100
C2687       C  0.51395015  0.35161150  0.92096757     0.16100
C2688       C  0.52023080  0.36690899  0.91574518     0.25500
C2689       C  0.52203267  0.38153852  0.92047522    -0.40800
C2690       C  0.51750437  0.38068834  0.93049766     0.32600
C2691       C  0.50388659  0.33485802  0.93668400     0.01200
F2692       F  0.51197433  0.33753539  0.91619004    -0.13100
F2693       F  0.51896886  0.39465206  0.93515355    -0.13700
C2694       C  0.48790566  0.32671899  0.94142156     0.16100
C2695       C  0.48273558  0.31178770  0.94689428     0.25500
C2696       C  0.49340294  0.30470817  0.94759531    -0.40800
C2697       C  0.50927065  0.31274926  0.94272155     0.32500
C2698       C  0.51451930  0.32776822  0.93739261     0.14200
F2699       F  0.47716878  0.33302444  0.94054943    -0.13100
F2700       F  0.51993249  0.30631867  0.94332250    -0.13600
F2701       F  0.46706321  0.30390634  0.95118438    -0.15900
F2702       F  0.53017252  0.33560796  0.93307093    -0.14500
F2703       F  0.50776409  0.36508133  0.94554530    -0.14500
F2704       F  0.52449435  0.36747428  0.90605366    -0.15900
C2705       C  0.62291361  0.47127109  0.92698215     0.14200
C2706       C  0.62344901  0.48006503  0.93570957     0.01100
C2707       C  0.60864002  0.48033376  0.93862920     0.16100
C2708       C  0.59368646  0.47205059  0.93289097     0.25500
C2709       C  0.59336620  0.46352338  0.92412396    -0.40800
C2710       C  0.60806458  0.46317460  0.92123904     0.32600
C2711       C  0.63948626  0.48874067  0.94167346     0.01200
F2712       F  0.60875898  0.48890444  0.94690922    -0.13100
F2713       F  0.60794602  0.45482121  0.91285734    -0.13700
C2714       C  0.65504467  0.50028792  0.93710412     0.16100
C2715       C  0.67047312  0.50685633  0.94228512     0.25500
C2716       C  0.67068697  0.50243387  0.95225295    -0.40800
C2717       C  0.65507404  0.49159753  0.95700279     0.32500
C2718       C  0.63962184  0.48472460  0.95174429     0.14200
F2719       F  0.65530986  0.50514834  0.92755758    -0.13100
F2720       F  0.65483162  0.48685224  0.96656771    -0.13600
F2721       F  0.68525031  0.51764619  0.93754351    -0.15900
F2722       F  0.62489075  0.47349885  0.95637155    -0.14500
F2723       F  0.63673652  0.47026238  0.92409108    -0.14500
F2724       F  0.57955767  0.47244775  0.93582627    -0.15900
C2725       C  0.76449133  0.54376821  0.03554217     0.14200
C2726       C  0.76536412  0.55905471  0.03848294     0.01100
C2727       C  0.76153811  0.56824786  0.03155582     0.16100
C2728       C  0.75678201  0.56218928  0.02185072     0.25500
C2729       C  0.75612702  0.54700147  0.01885751    -0.40800
C2730       C  0.76005055  0.53786347  0.02579804     0.32600
C2731       C  0.77027791  0.56551532  0.04875373     0.01200
F2732       F  0.76288484  0.58336433  0.03414193    -0.13100
F2733       F  0.75920788  0.52297626  0.02320762    -0.13700
C2734       C  0.78664395  0.57041240  0.05239953     0.16100
C2735       C  0.79163908  0.57765867  0.06186308     0.25500
C2736       C  0.78025900  0.58002319  0.06788650    -0.40800
C2737       C  0.76361551  0.57437892  0.06432658     0.32500
C2738       C  0.75875315  0.56734125  0.05484535     0.14200
F2739       F  0.79802459  0.56878997  0.04662853    -0.13100
F2740       F  0.75185280  0.57537659  0.07006602    -0.13600
F2741       F  0.80784124  0.58299927  0.06490537    -0.15900
F2742       F  0.74269422  0.56222988  0.05160271    -0.14500
F2743       F  0.76770586  0.53443262  0.04215355    -0.14500
F2744       F  0.75349153  0.57152467  0.01528449    -0.15900
C2745       C  0.90520796  0.51153431  0.88172471     0.14200
C2746       C  0.89459395  0.51596962  0.87643672     0.01100
C2747       C  0.87684763  0.50461714  0.87642215     0.16100
C2748       C  0.86984885  0.48917417  0.88161239     0.25500
C2749       C  0.88044368  0.48478963  0.88693291    -0.40800
C2750       C  0.89818352  0.49604175  0.88690606     0.32600
C2751       C  0.90197701  0.53220946  0.87075268     0.01200
F2752       F  0.86624923  0.50867759  0.87154450    -0.13100
F2753       F  0.90864935  0.49211829  0.89203974    -0.13700
C2754       C  0.89903368  0.53188676  0.86050806     0.16100
C2755       C  0.90577543  0.54706986  0.85509120     0.25500
C2756       C  0.91561052  0.56297001  0.85980502    -0.40800
C2757       C  0.91864346  0.56330271  0.87006845     0.32500
C2758       C  0.91184923  0.54806713  0.87548984     0.14200
F2759       F  0.88980852  0.51677831  0.85569460    -0.13100
F2760       F  0.92765874  0.57837910  0.87494368    -0.13600
F2761       F  0.90304065  0.54613243  0.84516283    -0.15900
F2762       F  0.91448713  0.54883084  0.88542791    -0.14500
F2763       F  0.92239531  0.52212866  0.88177458    -0.14500
F2764       F  0.85266659  0.47855777  0.88157922    -0.15900
C2765       C  0.82373273  0.47096820  0.94140238     0.14200
C2766       C  0.80870415  0.46992600  0.93770811     0.01100
C2767       C  0.80184114  0.46140180  0.92868633     0.16100
C2768       C  0.81001186  0.45429005  0.92337998     0.25500
C2769       C  0.82509706  0.45551743  0.92703393    -0.40800
C2770       C  0.83181881  0.46372976  0.93611568     0.32600
C2771       C  0.80028246  0.47789819  0.94315775     0.01200
F2772       F  0.78714468  0.45986812  0.92505771    -0.13100
F2773       F  0.84636892  0.46494897  0.93975608    -0.13700
C2774       C  0.79749770  0.49014497  0.93847929     0.16100
C2775       C  0.78911991  0.49734094  0.94346422     0.25500
C2776       C  0.78339678  0.49248110  0.95324930    -0.40800
C2777       C  0.78641580  0.48041474  0.95800102     0.32500
C2778       C  0.79476389  0.47316231  0.95298243     0.14200
F2779       F  0.80307467  0.49529356  0.92908801    -0.13100
F2780       F  0.78064643  0.47507303  0.96733960    -0.13600
F2781       F  0.78691908  0.50934931  0.93876676    -0.15900
F2782       F  0.79695545  0.46108455  0.95760211    -0.14500
F2783       F  0.83082715  0.47941035  0.94998335    -0.14500
F2784       F  0.80323897  0.44619521  0.91466757    -0.15900
C2785       C  0.57431336  0.77051315  0.94209203     0.14200
C2786       C  0.56238291  0.77562780  0.94417797     0.01100
C2787       C  0.55989152  0.78584043  0.93734045     0.16100
C2788       C  0.56913935  0.79080104  0.92847422     0.25500
C2789       C  0.58122361  0.78577490  0.92634610    -0.40800
C2790       C  0.58372124  0.77559329  0.93329340     0.32600
C2791       C  0.55293361  0.77074981  0.95364717     0.01200
F2792       F  0.54831266  0.79082519  0.93921413    -0.13100
F2793       F  0.59566622  0.77098239  0.93176925    -0.13700
C2794       C  0.55663703  0.78314880  0.96093745     0.16100
C2795       C  0.54803019  0.77863491  0.97000014     0.25500
C2796       C  0.53527751  0.76159665  0.97190080    -0.40800
C2797       C  0.53164022  0.74916025  0.96453755     0.32500
C2798       C  0.54045410  0.75372091  0.95550628     0.14200
F2799       F  0.56891458  0.79962754  0.95934615    -0.13100
F2800       F  0.51928596  0.73266446  0.96593923    -0.13600
F2801       F  0.55269120  0.79091911  0.97701820    -0.15900
F2802       F  0.53662038  0.74157144  0.94848799    -0.14500
F2803       F  0.57716480  0.76094452  0.94872222    -0.14500
F2804       F  0.56588047  0.80012101  0.92188420    -0.15900
C2805       C  0.65879346  0.74812742  0.85412881     0.14200
C2806       C  0.65043654  0.73107560  0.85733314     0.01100
C2807       C  0.63907919  0.72632553  0.86535925     0.16100
C2808       C  0.63555900  0.73815606  0.86981866     0.25500
C2809       C  0.64373950  0.75529195  0.86656203    -0.40800
C2810       C  0.65566559  0.76014043  0.85875000     0.32600
C2811       C  0.65293815  0.71804728  0.85208550     0.01200
F2812       F  0.63123149  0.71008472  0.86887215    -0.13100
F2813       F  0.66447275  0.77652660  0.85554139    -0.13700
C2814       C  0.66936269  0.72031543  0.85072133     0.16100
C2815       C  0.67147757  0.70771771  0.84598167     0.25500
C2816       C  0.65717891  0.69251001  0.84265321    -0.40800
C2817       C  0.64081900  0.69047899  0.84380790     0.32500
C2818       C  0.63873630  0.70312367  0.84842601     0.14200
F2819       F  0.68332501  0.73445278  0.85429504    -0.13100
F2820       F  0.62678491  0.67632609  0.84031451    -0.13600
F2821       F  0.68744875  0.71008074  0.84507631    -0.15900
F2822       F  0.62277662  0.70084250  0.84924209    -0.14500
F2823       F  0.66965201  0.75309133  0.84630075    -0.14500
F2824       F  0.62361621  0.73246612  0.87708182    -0.15900
C2825       C  0.57511899  0.49805706  0.86273252     0.14200
C2826       C  0.59133610  0.51168391  0.86517406     0.01100
C2827       C  0.59926559  0.51030557  0.87377702     0.16100
C2828       C  0.59079333  0.49617486  0.88003389     0.25500
C2829       C  0.57321492  0.48398869  0.87869027    -0.40800
C2830       C  0.56640845  0.48418155  0.86920104     0.32600
C2831       C  0.60032077  0.52687014  0.85855840     0.01200
F2832       F  0.61537555  0.52263982  0.87617968    -0.13100
F2833       F  0.55225646  0.47038412  0.86556016    -0.13700
C2834       C  0.59230286  0.53604658  0.85560556     0.16100
C2835       C  0.60115336  0.55099436  0.84997069     0.25500
C2836       C  0.61830279  0.55724517  0.84726547    -0.40800
C2837       C  0.62614765  0.54778720  0.84998127     0.32500
C2838       C  0.61719123  0.53267960  0.85543425     0.14200
F2839       F  0.57600886  0.53081211  0.85840630    -0.13100
F2840       F  0.64274624  0.55345359  0.84772593    -0.13600
F2841       F  0.59285410  0.55926896  0.84710049    -0.15900
F2842       F  0.62507669  0.52370734  0.85765406    -0.14500
F2843       F  0.56795904  0.49777696  0.85383727    -0.14500
F2844       F  0.60050167  0.49386468  0.88681740    -0.15900
C2845       C  0.65520047  0.93032851  0.84308636     0.14200
C2846       C  0.65074469  0.92496853  0.85296506     0.01100
C2847       C  0.65050828  0.93644549  0.85990546     0.16100
C2848       C  0.65385054  0.95262466  0.85694708     0.25500
C2849       C  0.65782713  0.95781714  0.84702148    -0.40800
C2850       C  0.65890198  0.94668858  0.84016373     0.32600
C2851       C  0.64594406  0.90736480  0.85607444     0.01200
F2852       F  0.64703675  0.93197250  0.86959064    -0.13100
F2853       F  0.66263479  0.95127730  0.83051573    -0.13700
C2854       C  0.65705544  0.90095521  0.85453733     0.16100
C2855       C  0.65297763  0.88486596  0.85821060     0.25500
C2856       C  0.63778505  0.87497956  0.86358067    -0.40800
C2857       C  0.62631183  0.88106510  0.86466133     0.32500
C2858       C  0.63032891  0.89704277  0.86093322     0.14200
F2859       F  0.67222570  0.91058607  0.84987058    -0.13100
F2860       F  0.61105737  0.87146451  0.86925002    -0.13600
F2861       F  0.66432424  0.87940115  0.85693939    -0.15900
F2862       F  0.61891511  0.90246433  0.86208669    -0.14500
F2863       F  0.65524325  0.91946880  0.83616797    -0.14500
F2864       F  0.65335128  0.96330278  0.86382885    -0.15900
C2865       C  0.77899346  0.32273777  0.94134497     0.14200
C2866       C  0.79687141  0.33125515  0.94195204     0.01100
C2867       C  0.80469721  0.32403738  0.94754775     0.16100
C2868       C  0.79482222  0.30837355  0.95234932     0.25500
C2869       C  0.77680572  0.29968225  0.95177878    -0.40800
C2870       C  0.76904190  0.30720666  0.94626061     0.32600
C2871       C  0.80731794  0.34764895  0.93670244     0.01200
F2872       F  0.82198436  0.33201018  0.94817972    -0.13100
F2873       F  0.75180491  0.29988539  0.94581720    -0.13700
C2874       C  0.81743645  0.36279055  0.94204437     0.16100
C2875       C  0.82676401  0.37837816  0.93706309     0.25500
C2876       C  0.82620925  0.37900054  0.92666029    -0.40800
C2877       C  0.81631762  0.36378174  0.92133300     0.32500
C2878       C  0.80695032  0.34824934  0.92631006     0.14200
F2879       F  0.81794869  0.36250046  0.95209410    -0.13100
F2880       F  0.81561214  0.36403314  0.91128796    -0.13600
F2881       F  0.83620307  0.39289254  0.94237822    -0.15900
F2882       F  0.79755847  0.33374235  0.92098154    -0.14500
F2883       F  0.77114533  0.32968651  0.93613737    -0.14500
F2884       F  0.80305167  0.30159182  0.95730142    -0.15900
C2885       C  0.78027076  0.18466182  0.03988886     0.14200
C2886       C  0.78330864  0.20092442  0.03724443     0.01100
C2887       C  0.79202484  0.21457945  0.04386848     0.16100
C2888       C  0.79706778  0.21187161  0.05317945     0.25500
C2889       C  0.79369463  0.19545674  0.05597337    -0.40800
C2890       C  0.78547739  0.18194295  0.04913199     0.32600
C2891       C  0.77652458  0.20338032  0.02780339     0.01200
F2892       F  0.79503925  0.23041551  0.04147167    -0.13100
F2893       F  0.78263261  0.16609841  0.05129944    -0.13700
C2894       C  0.75881130  0.19507624  0.02623436     0.16100
C2895       C  0.75220155  0.19754440  0.01742481     0.25500
C2896       C  0.76324354  0.20845140  0.01001801    -0.40800
C2897       C  0.78102290  0.21638918  0.01151954     0.32500
C2898       C  0.78758960  0.21398556  0.02037187     0.14200
F2899       F  0.74789035  0.18495402  0.03339656    -0.13100
F2900       F  0.79209355  0.22617540  0.00432752    -0.13600
F2901       F  0.73499707  0.18974849  0.01634907    -0.15900
F2902       F  0.80476672  0.22185898  0.02164885    -0.14500
F2903       F  0.77222796  0.17138545  0.03347759    -0.14500
F2904       F  0.80448968  0.22517962  0.05960468    -0.15900
C2905       C  0.46751900  0.06515028  0.86983004     0.14200
C2906       C  0.46397429  0.07689060  0.86510914     0.01100
C2907       C  0.47594064  0.09445637  0.86579991     0.16100
C2908       C  0.49099232  0.10016072  0.87124476     0.25500
C2909       C  0.49413814  0.08842811  0.87626237    -0.40800
C2910       C  0.48241049  0.07090274  0.87543568     0.32600
C2911       C  0.44750255  0.07092949  0.85986714     0.01200
F2912       F  0.47264405  0.10614082  0.86163099    -0.13100
F2913       F  0.48508079  0.05943291  0.88042054    -0.13700
C2914       C  0.43194858  0.06068063  0.86480072     0.16100
C2915       C  0.41640465  0.05542366  0.85998642     0.25500
C2916       C  0.41606750  0.06046459  0.85015617    -0.40800
C2917       C  0.43164881  0.07083425  0.84524819     0.32500
C2918       C  0.44719812  0.07586003  0.85002507     0.14200
F2919       F  0.43178721  0.05614279  0.87440741    -0.13100
F2920       F  0.43187898  0.07574946  0.83572397    -0.13600
F2921       F  0.40169754  0.04592172  0.86510626    -0.15900
F2922       F  0.46199225  0.08530946  0.84496624    -0.14500
F2923       F  0.45641518  0.04811090  0.86915003    -0.14500
F2924       F  0.50214852  0.11718213  0.87202018    -0.15900
C2925       C  0.51543465  0.16180849  0.92277188     0.14200
C2926       C  0.50468485  0.15397987  0.93097197     0.01100
C2927       C  0.50016022  0.13713421  0.93346299     0.16100
C2928       C  0.50629852  0.12832282  0.92787000     0.25500
C2929       C  0.51688235  0.13613889  0.91965178    -0.40800
C2930       C  0.52135086  0.15289774  0.91711605     0.32600
C2931       C  0.49807080  0.16334288  0.93680644     0.01200
F2932       F  0.48956506  0.12912009  0.94121018    -0.13100
F2933       F  0.53171154  0.16070318  0.90924908    -0.13700
C2934       C  0.48935031  0.17051705  0.93202814     0.16100
C2935       C  0.48378530  0.18001899  0.93738325     0.25500
C2936       C  0.48662745  0.18236548  0.94766145    -0.40800
C2937       C  0.49479714  0.17468926  0.95251662     0.32500
C2938       C  0.50063242  0.16541347  0.94712129     0.14200
F2939       F  0.48616628  0.16827383  0.92214452    -0.13100
F2940       F  0.49796371  0.17691943  0.96239882    -0.13600
F2941       F  0.47545803  0.18680348  0.93251127    -0.15900
F2942       F  0.50942849  0.15907363  0.95191935    -0.14500
F2943       F  0.52049530  0.17822737  0.92036059    -0.14500
F2944       F  0.50192422  0.11215061  0.93045265    -0.15900
C2945       C  0.58747880  0.04670171  0.85848948     0.14200
C2946       C  0.59585872  0.06351369  0.86220213     0.01100
C2947       C  0.61347708  0.07400675  0.86041381     0.16100
C2948       C  0.62247916  0.06779985  0.85505937     0.25500
C2949       C  0.61413190  0.05088924  0.85155006    -0.40800
C2950       C  0.59656470  0.04039623  0.85332444     0.32600
C2951       C  0.58627977  0.06989628  0.86810023     0.01200
F2952       F  0.62212095  0.09010751  0.86412803    -0.13100
F2953       F  0.58809337  0.02413484  0.84984128    -0.13700
C2954       C  0.57660071  0.06068754  0.87639434     0.16100
C2955       C  0.56745516  0.06653226  0.88191407     0.25500
C2956       C  0.56813758  0.08193181  0.87941796    -0.40800
C2957       C  0.57789132  0.09121882  0.87119031     0.32500
C2958       C  0.58674744  0.08519666  0.86552878     0.14200
F2959       F  0.57641428  0.04626319  0.87933812    -0.13100
F2960       F  0.57889163  0.10620680  0.86868280    -0.13600
F2961       F  0.55831245  0.05741848  0.88989731    -0.15900
F2962       F  0.59565806  0.09425567  0.85747408    -0.14500
F2963       F  0.57039201  0.03642904  0.85974192    -0.14500
F2964       F  0.63952820  0.07811599  0.85366389    -0.15900
C2965       C  0.63400943  0.16811130  0.94731433     0.14200
C2966       C  0.63191756  0.15322216  0.94284756     0.01100
C2967       C  0.64402592  0.14814540  0.94447742     0.16100
C2968       C  0.65839336  0.15818826  0.95036931     0.25500
C2969       C  0.66097318  0.17364708  0.95438369    -0.40800
C2970       C  0.64851712  0.17834973  0.95296827     0.32600
C2971       C  0.61757826  0.14375809  0.93599747     0.01200
F2972       F  0.64219257  0.13382166  0.94009622    -0.13100
F2973       F  0.65053566  0.19301029  0.95696051    -0.13700
C2974       C  0.61980341  0.14768438  0.92585695     0.16100
C2975       C  0.60581763  0.14024936  0.91944925     0.25500
C2976       C  0.58949443  0.12869970  0.92311266    -0.40800
C2977       C  0.58730253  0.12468846  0.93325832     0.32500
C2978       C  0.60129965  0.13221832  0.93967606     0.14200
F2979       F  0.63540988  0.15922741  0.92225834    -0.13100
F2980       F  0.57153424  0.11387858  0.93695160    -0.13600
F2981       F  0.60804463  0.14468727  0.90972394    -0.15900
F2982       F  0.59894817  0.12866597  0.94951174    -0.14500
F2983       F  0.62226631  0.17303201  0.94586578    -0.14500
F2984       F  0.67024586  0.15336787  0.95164149    -0.15900
C2985       C  0.18189960  0.41126616  0.93757908     0.14200
C2986       C  0.19185017  0.40769039  0.94403216     0.01100
C2987       C  0.19601771  0.39525482  0.94137607     0.16100
C2988       C  0.19053531  0.38666857  0.93232009     0.25500
C2989       C  0.18104193  0.39062615  0.92563048    -0.40800
C2990       C  0.17665205  0.40294047  0.92843488     0.32600
C2991       C  0.19812591  0.41712788  0.95347024     0.01200
F2992       F  0.20528092  0.39130500  0.94762709    -0.13100
F2993       F  0.16788892  0.40752766  0.92220474    -0.13700
C2994       C  0.18657193  0.41568318  0.96084757     0.16100
C2995       C  0.19251834  0.42454460  0.96978737     0.25500
C2996       C  0.21018330  0.43509694  0.97149629    -0.40800
C2997       C  0.22172231  0.43659568  0.96404175     0.32500
C2998       C  0.21572780  0.42766393  0.95511690     0.14200
F2999       F  0.16951008  0.40537984  0.95946724    -0.13100
F3000       F  0.23878468  0.44710757  0.96524089    -0.13600
F3001       F  0.18095244  0.42233013  0.97687206    -0.15900
F3002       F  0.22710094  0.42957244  0.94797143    -0.14500
F3003       F  0.17773614  0.42327140  0.94000129    -0.14500
F3004       F  0.19428986  0.37426672  0.93022956    -0.15900
C3005       C  0.07160881  0.35308630  0.86028230     0.14200
C3006       C  0.06025825  0.33734570  0.85580816     0.01100
C3007       C  0.06563006  0.32535175  0.85439766     0.16100
C3008       C  0.08188556  0.32893690  0.85752463     0.25500
C3009       C  0.09296169  0.34444118  0.86233758    -0.40800
C3010       C  0.08769237  0.35654439  0.86355778     0.32600
C3011       C  0.04280054  0.33344711  0.85280424     0.01200
F3012       F  0.05487015  0.30984286  0.85036434    -0.13100
F3013       F  0.09822722  0.37192585  0.86780216    -0.13700
C3014       C  0.03669220  0.32791466  0.84312466     0.16100
C3015       C  0.02042147  0.32467957  0.84029813     0.25500
C3016       C  0.01008089  0.32731945  0.84701606    -0.40800
C3017       C  0.01610280  0.33262017  0.85672891     0.32500
C3018       C  0.03218111  0.33548290  0.85961105     0.14200
F3019       F  0.04669900  0.32617415  0.83628524    -0.13100
F3020       F  0.00623050  0.33459265  0.86355971    -0.13600
F3021       F  0.01507925  0.31959048  0.83086402    -0.15900
F3022       F  0.03727007  0.34001089  0.86914269    -0.14500
F3023       F  0.06717181  0.36524501  0.86144209    -0.14500
F3024       F  0.08641229  0.31687318  0.85625483    -0.15900
C3025       C  0.88699715  0.36146273  0.86694298     0.14200
C3026       C  0.89791426  0.37902808  0.86862288     0.01100
C3027       C  0.91475476  0.38679825  0.86501180     0.16100
C3028       C  0.92058785  0.37718744  0.85994419     0.25500
C3029       C  0.90960472  0.35960169  0.85819189    -0.40800
C3030       C  0.89270942  0.35190672  0.86173684     0.32600
C3031       C  0.89184333  0.38904295  0.87436993     0.01200
F3032       F  0.92552965  0.40381366  0.86624157    -0.13100
F3033       F  0.88180038  0.33493048  0.86053429    -0.13700
C3034       C  0.90109099  0.39874916  0.88266559     0.16100
C3035       C  0.89511291  0.40766899  0.88828116     0.25500
C3036       C  0.87955348  0.40668925  0.88590680    -0.40800
C3037       C  0.87020656  0.39694737  0.87768628     0.32500
C3038       C  0.87643682  0.38845494  0.87185895     0.14200
F3039       F  0.91555746  0.39901069  0.88560489    -0.13100
F3040       F  0.85486394  0.39537952  0.87544304    -0.13600
F3041       F  0.90413272  0.41670630  0.89632733    -0.15900
F3042       F  0.86738090  0.37961259  0.86377062    -0.14500
F3043       F  0.87087973  0.35335295  0.87063889    -0.14500
F3044       F  0.93689702  0.38526991  0.85655375    -0.15900
C3045       C  0.23229899  0.32528509  0.86412665     0.14200
C3046       C  0.23547563  0.32729089  0.85390586     0.01100
C3047       C  0.22577615  0.33188097  0.84788528     0.16100
C3048       C  0.21341399  0.33497145  0.85209663     0.25500
C3049       C  0.21061668  0.33355988  0.86242062    -0.40800
C3050       C  0.22000285  0.32835723  0.86835254     0.32600
C3051       C  0.24981109  0.32578848  0.84977829     0.01200
F3052       F  0.22873320  0.33399165  0.83798574    -0.13100
F3053       F  0.21723578  0.32610821  0.87826275    -0.13700
C3054       C  0.24693943  0.31095833  0.84481867     0.16100
C3055       C  0.26075629  0.30901699  0.84189098     0.25500
C3056       C  0.27772959  0.32198279  0.84384075    -0.40800
C3057       C  0.28041963  0.33713698  0.84845731     0.32500
C3058       C  0.26661709  0.33892829  0.85143288     0.14200
F3059       F  0.23073552  0.29811289  0.84313404    -0.13100
F3060       F  0.29641748  0.35041233  0.85004469    -0.13600
F3061       F  0.25742006  0.29413008  0.83756846    -0.15900
F3062       F  0.26965145  0.35351366  0.85605306    -0.14500
F3063       F  0.24132343  0.32053267  0.87004459    -0.14500
F3064       F  0.20483667  0.34017151  0.84612554    -0.15900
C3065       C  0.44366100  0.38544120  0.85547324     0.14200
C3066       C  0.44436977  0.38449045  0.86586527     0.01100
C3067       C  0.42916182  0.37403529  0.87109829     0.16100
C3068       C  0.41364546  0.36468704  0.86604869     0.25500
C3069       C  0.41311793  0.36509729  0.85565031    -0.40800
C3070       C  0.42824022  0.37561591  0.85040835     0.32600
C3071       C  0.46100552  0.39378464  0.87118278     0.01200
F3072       F  0.42941573  0.37223278  0.88107363    -0.13100
F3073       F  0.42804576  0.37656089  0.84037304    -0.13700
C3074       C  0.46298736  0.40402369  0.87951408     0.16100
C3075       C  0.47840422  0.41198746  0.88477679     0.25500
C3076       C  0.49221541  0.41024577  0.88164296    -0.40800
C3077       C  0.49039653  0.40026862  0.87328118     0.32500
C3078       C  0.47490638  0.39199367  0.86813756     0.14200
F3079       F  0.45000102  0.40631833  0.88256674    -0.13100
F3080       F  0.50349175  0.39806662  0.87032373    -0.13600
F3081       F  0.47979556  0.42113351  0.89304816    -0.15900
F3082       F  0.47329464  0.38166994  0.86041620    -0.14500
F3083       F  0.45792106  0.39592623  0.85021064    -0.14500
F3084       F  0.39927788  0.35451263  0.87130567    -0.15900
C3085       C  0.32451534  0.08849299  0.78381682     0.14200
C3086       C  0.33249559  0.10616923  0.78539714     0.01100
C3087       C  0.34114322  0.11316620  0.79433935     0.16100
C3088       C  0.34236139  0.10268760  0.80147713     0.25500
C3089       C  0.33468638  0.08503515  0.79982453    -0.40800
C3090       C  0.32549900  0.07795650  0.79102227     0.32600
C3091       C  0.33266119  0.11747476  0.77751607     0.01200
F3092       F  0.34840493  0.13016672  0.79612730    -0.13100
F3093       F  0.31816298  0.06096658  0.78919929    -0.13700
C3094       C  0.31742157  0.11623150  0.77416465     0.16100
C3095       C  0.31776337  0.12717140  0.76675223     0.25500
C3096       C  0.33344573  0.13961520  0.76260395    -0.40800
C3097       C  0.34867192  0.14056175  0.76594144     0.32500
C3098       C  0.34823249  0.12957075  0.77330045     0.14200
F3099       F  0.30223882  0.10461430  0.77820942    -0.13100
F3100       F  0.36407947  0.15204964  0.76208489    -0.13600
F3101       F  0.30273740  0.12561312  0.76373859    -0.15900
F3102       F  0.36305890  0.13058009  0.77624277    -0.14500
F3103       F  0.31634744  0.08155756  0.77514122    -0.14500
F3104       F  0.35080650  0.10973723  0.81006511    -0.15900
C3105       C  0.35122503  0.23408573  0.77064009     0.14200
C3106       C  0.33771520  0.22915951  0.77735500     0.01100
C3107       C  0.32354575  0.21254244  0.77675978     0.16100
C3108       C  0.32294353  0.20103116  0.76957153     0.25500
C3109       C  0.33652408  0.20595773  0.76283336    -0.40800
C3110       C  0.35068815  0.22262655  0.76348992     0.32600
C3111       C  0.33859793  0.24141033  0.78499558     0.01200
F3112       F  0.31045649  0.20735749  0.78328380    -0.13100
F3113       F  0.36391002  0.22803078  0.75704489    -0.13700
C3114       C  0.32707797  0.24749351  0.78482495     0.16100
C3115       C  0.32835824  0.25955618  0.79180159     0.25500
C3116       C  0.34099877  0.26556106  0.79926796    -0.40800
C3117       C  0.35257499  0.25942294  0.79937422     0.32500
C3118       C  0.35139320  0.24753934  0.79229530     0.14200
F3119       F  0.31481771  0.24206546  0.77772170    -0.13100
F3120       F  0.36480689  0.26450394  0.80646502    -0.13600
F3121       F  0.31752660  0.26574453  0.79100114    -0.15900
F3122       F  0.36260307  0.24174576  0.79266777    -0.14500
F3123       F  0.36485821  0.25018386  0.77089646    -0.14500
F3124       F  0.30931026  0.18492767  0.76940234    -0.15900
C3125       C  0.72254179  0.09088621  0.78432993     0.14200
C3126       C  0.73991209  0.09616577  0.78559576     0.01100
C3127       C  0.74480608  0.08934524  0.79345227     0.16100
C3128       C  0.73255669  0.07760215  0.79999627     0.25500
C3129       C  0.71523031  0.07266686  0.79888472    -0.40800
C3130       C  0.71032777  0.07933498  0.79094465     0.32600
C3131       C  0.75281852  0.10874656  0.77868664     0.01200
F3132       F  0.76152094  0.09444721  0.79497066    -0.13100
F3133       F  0.69364760  0.07439153  0.78945035    -0.13700
C3134       C  0.75394146  0.12462125  0.77713761     0.16100
C3135       C  0.76544142  0.13614339  0.77023446     0.25500
C3136       C  0.77618500  0.13207837  0.76477289    -0.40800
C3137       C  0.77529760  0.11630817  0.76650426     0.32500
C3138       C  0.76372046  0.10477225  0.77338719     0.14200
F3139       F  0.74397676  0.12905481  0.78239569    -0.13100
F3140       F  0.78525865  0.11176624  0.76133533    -0.13600
F3141       F  0.76617084  0.15137619  0.76901400    -0.15900
F3142       F  0.76279196  0.08945974  0.77464688    -0.14500
F3143       F  0.71737655  0.09675454  0.77657993    -0.14500
F3144       F  0.73775909  0.07163729  0.80767107    -0.15900
C3145       C  0.86122910  0.23151621  0.80043563     0.14200
C3146       C  0.86837003  0.23157597  0.79115796     0.01100
C3147       C  0.88561724  0.24368066  0.78940496     0.16100
C3148       C  0.89550797  0.25548719  0.79673982     0.25500
C3149       C  0.88829115  0.25568531  0.80593988    -0.40800
C3150       C  0.87104442  0.24356134  0.80771668     0.32600
C3151       C  0.85776615  0.21952114  0.78316591     0.01200
F3152       F  0.89276261  0.24446632  0.78043685    -0.13100
F3153       F  0.86379902  0.24307942  0.81660164    -0.13700
C3154       C  0.84280415  0.21906467  0.77989576     0.16100
C3155       C  0.83324448  0.20842674  0.77204189     0.25500
C3156       C  0.83836491  0.19784944  0.76727000    -0.40800
C3157       C  0.85333916  0.19826659  0.77061610     0.32500
C3158       C  0.86288953  0.20895646  0.77846719     0.14200
F3159       F  0.83766688  0.22933261  0.78413199    -0.13100
F3160       F  0.85898663  0.18854713  0.76620744    -0.13600
F3161       F  0.81899216  0.20861421  0.76911690    -0.15900
F3162       F  0.87715793  0.20891352  0.78151622    -0.14500
F3163       F  0.84478511  0.21963760  0.80249320    -0.14500
F3164       F  0.91200013  0.26718739  0.79467437    -0.15900
C3165       C  0.77401268  0.65734111  0.77333582     0.14200
C3166       C  0.75823197  0.64235814  0.77472864     0.01100
C3167       C  0.75432839  0.62786889  0.76903087     0.16100
C3168       C  0.76608715  0.62824467  0.76215956     0.25500
C3169       C  0.78207162  0.64320302  0.76079539    -0.40800
C3170       C  0.78581022  0.65779875  0.76644179     0.32600
C3171       C  0.74615843  0.64158500  0.78243006     0.01200
F3172       F  0.73902436  0.61331500  0.77009633    -0.13100
F3173       F  0.80107167  0.67242816  0.76552158    -0.13700
C3174       C  0.73907916  0.65227532  0.78194512     0.16100
C3175       C  0.72772378  0.65146206  0.78927613     0.25500
C3176       C  0.72325414  0.63993001  0.79723575    -0.40800
C3177       C  0.73050471  0.62935590  0.79772463     0.32500
C3178       C  0.74179008  0.63016048  0.79039096     0.14200
F3179       F  0.74282479  0.66319412  0.77422465    -0.13100
F3180       F  0.72701842  0.61848453  0.80543984    -0.13600
F3181       F  0.72062456  0.66149739  0.78836307    -0.15900
F3182       F  0.74872960  0.61995688  0.79115577    -0.14500
F3183       F  0.77823599  0.67139752  0.77890994    -0.14500
F3184       F  0.76168566  0.61392599  0.75680236    -0.15900
C3185       C  0.86660397  0.65540509  0.77685815     0.14200
C3186       C  0.86671212  0.64021544  0.77866759     0.01100
C3187       C  0.85618515  0.62565334  0.77303103     0.16100
C3188       C  0.84586836  0.62629081  0.76553082     0.25500
C3189       C  0.84594436  0.64161058  0.76348206    -0.40800
C3190       C  0.85625609  0.65611236  0.76936929     0.32600
C3191       C  0.87785185  0.63950474  0.78641786     0.01200
F3192       F  0.85619263  0.61086827  0.77466422    -0.13100
F3193       F  0.85617584  0.67092105  0.76800921    -0.13700
C3194       C  0.87077158  0.63053305  0.79523542     0.16100
C3195       C  0.88125942  0.62958951  0.80251724     0.25500
C3196       C  0.89905053  0.63758907  0.80107621    -0.40800
C3197       C  0.90608081  0.64650660  0.79217994     0.32500
C3198       C  0.89554221  0.64743639  0.78491448     0.14200
F3199       F  0.85367945  0.62280319  0.79681470    -0.13100
F3200       F  0.92305433  0.65377933  0.79033468    -0.13600
F3201       F  0.87400928  0.62117535  0.81106651    -0.15900
F3202       F  0.90252899  0.65569579  0.77628226    -0.14500
F3203       F  0.87643584  0.66950964  0.78242030    -0.14500
F3204       F  0.83607258  0.61193285  0.76016337    -0.15900
C3205       C  0.55103885  0.78199546  0.52721707     0.14200
C3206       C  0.56374735  0.77767573  0.52872871     0.01100
C3207       C  0.56724552  0.76913137  0.52123862     0.16100
C3208       C  0.55819818  0.76499845  0.51231557     0.25500
C3209       C  0.54552461  0.76939737  0.51074816    -0.40800
C3210       C  0.54195713  0.77785941  0.51829845     0.32600
C3211       C  0.57342673  0.78217459  0.53811137     0.01200
F3212       F  0.57972255  0.76516031  0.52249284    -0.13100
F3213       F  0.52935103  0.78168159  0.51716632    -0.13700
C3214       C  0.57158610  0.76934997  0.54466905     0.16100
C3215       C  0.58038597  0.77363968  0.55370205     0.25500
C3216       C  0.59134472  0.79089982  0.55627714    -0.40800
C3217       C  0.59349119  0.80367779  0.54949128     0.32500
C3218       C  0.58449348  0.79933543  0.54054654     0.14200
F3219       F  0.56085727  0.75266305  0.54242872    -0.13100
F3220       F  0.60457105  0.82041312  0.55137776    -0.13600
F3221       F  0.57761268  0.76088310  0.56004374    -0.15900
F3222       F  0.58673108  0.81190173  0.53417972    -0.14500
F3223       F  0.54726420  0.78998726  0.53445429    -0.14500
F3224       F  0.56224649  0.75721147  0.50508986    -0.15900
C3225       C  0.74802227  0.65564385  0.69523069     0.14200
C3226       C  0.75608762  0.64602046  0.69382057     0.01100
C3227       C  0.75240633  0.63589430  0.68528558     0.16100
C3228       C  0.74041655  0.63498696  0.67839968     0.25500
C3229       C  0.73205769  0.64439242  0.67987725    -0.40800
C3230       C  0.73617632  0.65491499  0.68830711     0.32600
C3231       C  0.76736421  0.64562678  0.70161840     0.01200
F3232       F  0.76038841  0.62681585  0.68366053    -0.13100
F3233       F  0.72806719  0.66378729  0.69016251    -0.13700
C3234       C  0.76259765  0.63035621  0.70667589     0.16100
C3235       C  0.77251981  0.63001402  0.71449654     0.25500
C3236       C  0.78751499  0.64500058  0.71742630    -0.40800
C3237       C  0.79244928  0.66026148  0.71217675     0.32500
C3238       C  0.78241519  0.66054668  0.70436514     0.14200
F3239       F  0.74797973  0.61581742  0.70422739    -0.13100
F3240       F  0.80704824  0.67490558  0.71450709    -0.13600
F3241       F  0.76715750  0.61501315  0.71931490    -0.15900
F3242       F  0.78744167  0.67537791  0.69942370    -0.14500
F3243       F  0.75103796  0.66514263  0.70356804    -0.14500
F3244       F  0.73709279  0.62498687  0.67026038    -0.15900
C3245       C  0.64444592  0.74615526  0.63763038     0.14200
C3246       C  0.64877359  0.73581157  0.63201401     0.01100
C3247       C  0.65006459  0.73779183  0.62168445     0.16100
C3248       C  0.64704689  0.74981193  0.61700917     0.25500
C3249       C  0.64251446  0.76015418  0.62255524    -0.40800
C3250       C  0.64149335  0.75832465  0.63296747     0.32600
C3251       C  0.65226872  0.72306685  0.63677368     0.01200
F3252       F  0.65411672  0.72788239  0.61607674    -0.13100
F3253       F  0.63727053  0.76800307  0.63865313    -0.13700
C3254       C  0.63901006  0.70813876  0.64106758     0.16100
C3255       C  0.64195257  0.69509744  0.64427742     0.25500
C3256       C  0.65827003  0.69688867  0.64341274    -0.40800
C3257       C  0.67174062  0.71226308  0.63965219     0.32500
C3258       C  0.66871024  0.72513641  0.63626807     0.14200
F3259       F  0.62306193  0.70590026  0.64179127    -0.13100
F3260       F  0.68766032  0.71448712  0.63875472    -0.13600
F3261       F  0.62884504  0.68068834  0.64823761    -0.15900
F3262       F  0.68176795  0.73952680  0.63226001    -0.14500
F3263       F  0.64321518  0.74456026  0.64764122    -0.14500
F3264       F  0.64903685  0.75156127  0.60703626    -0.15900
C3265       C  0.72722642  0.09722047  0.69993050     0.14200
C3266       C  0.74356147  0.09902454  0.70043763     0.01100
C3267       C  0.74786858  0.08993867  0.69372277     0.16100
C3268       C  0.73617812  0.07951559  0.68647378     0.25500
C3269       C  0.71997523  0.07804427  0.68578792    -0.40800
C3270       C  0.71556804  0.08689703  0.69264761     0.32600
C3271       C  0.75629692  0.11093446  0.70770290     0.01200
F3272       F  0.76365157  0.09167261  0.69395167    -0.13100
F3273       F  0.69986249  0.08534702  0.69240888    -0.13700
C3274       C  0.76318855  0.10499809  0.71497150     0.16100
C3275       C  0.77488193  0.11630642  0.72195491     0.25500
C3276       C  0.77974608  0.13371534  0.72182827    -0.40800
C3277       C  0.77314439  0.13967204  0.71438983     0.32500
C3278       C  0.76156896  0.12839963  0.70739242     0.14200
F3279       F  0.75813990  0.08814770  0.71551078    -0.13100
F3280       F  0.77807130  0.15649160  0.71381594    -0.13600
F3281       F  0.78084185  0.11008866  0.72910061    -0.15900
F3282       F  0.75556543  0.13456315  0.70023955    -0.14500
F3283       F  0.72254833  0.10542046  0.70654418    -0.14500
F3284       F  0.74103275  0.07151953  0.67983013    -0.15900
C3285       C  0.66498506  0.94909230  0.62046325     0.14200
C3286       C  0.65889556  0.93500759  0.62688149     0.01100
C3287       C  0.65709547  0.93735412  0.63701785     0.16100
C3288       C  0.66091597  0.95338716  0.64065052     0.25500
C3289       C  0.66643716  0.96734273  0.63417771    -0.40800
C3290       C  0.66870024  0.96510477  0.62407922     0.32600
C3291       C  0.65394218  0.91773339  0.62305605     0.01200
F3292       F  0.65095530  0.92389883  0.64333873    -0.13100
F3293       F  0.67469571  0.97850720  0.61772250    -0.13700
C3294       C  0.66211983  0.90907793  0.62657090     0.16100
C3295       C  0.65681186  0.89238794  0.62345508     0.25500
C3296       C  0.64308650  0.88389237  0.61676588    -0.40800
C3297       C  0.63490692  0.89266207  0.61325011     0.32500
C3298       C  0.64040279  0.90944609  0.61629040     0.14200
F3299       F  0.67546183  0.91692371  0.63295591    -0.13100
F3300       F  0.62117852  0.88485192  0.60713269    -0.13600
F3301       F  0.66547105  0.88478080  0.62682518    -0.15900
F3302       F  0.63213161  0.91743709  0.61285525    -0.14500
F3303       F  0.66738849  0.94735361  0.61069900    -0.14500
F3304       F  0.65835703  0.95502044  0.65040190    -0.15900
C3305       C  0.83556773  0.37095676  0.54363006     0.14200
C3306       C  0.82180494  0.35560029  0.54718798     0.01100
C3307       C  0.81689834  0.35451405  0.55717127     0.16100
C3308       C  0.82523691  0.36864125  0.56341513     0.25500
C3309       C  0.83874276  0.38406839  0.55982337    -0.40800
C3310       C  0.84395487  0.38512713  0.54991543     0.32600
C3311       C  0.81197685  0.34079591  0.54054034     0.01200
F3312       F  0.80396614  0.33970151  0.56087302    -0.13100
F3313       F  0.85704248  0.39994752  0.54633898    -0.13700
C3314       C  0.81988762  0.33294163  0.53558488     0.16100
C3315       C  0.81003169  0.31781338  0.53023511     0.25500
C3316       C  0.79215218  0.31028747  0.52988180    -0.40800
C3317       C  0.78440638  0.31862396  0.53443002     0.32500
C3318       C  0.79423165  0.33377582  0.53965271     0.14200
F3319       F  0.83700127  0.33941221  0.53634612    -0.13100
F3320       F  0.76726939  0.31210026  0.53380366    -0.13600
F3321       F  0.81784713  0.31002218  0.52590255    -0.15900
F3322       F  0.78636511  0.34150619  0.54400182    -0.14500
F3323       F  0.84054936  0.37237273  0.53402578    -0.14500
F3324       F  0.82001676  0.36735542  0.57296406    -0.15900
C3325       C  0.78281981  0.22201610  0.45646721     0.14200
C3326       C  0.77003985  0.21257945  0.44946403     0.01100
C3327       C  0.75291248  0.20688692  0.45178837     0.16100
C3328       C  0.74858589  0.21070458  0.46098466     0.25500
C3329       C  0.76135972  0.22025538  0.46802072    -0.40800
C3330       C  0.77852825  0.22579719  0.46569107     0.32600
C3331       C  0.77451353  0.20863342  0.43970855     0.01200
F3332       F  0.74041145  0.19791500  0.44504568    -0.13100
F3333       F  0.79112650  0.23441853  0.47243525    -0.13700
C3334       C  0.76886563  0.19166060  0.43704599     0.16100
C3335       C  0.77287849  0.18782708  0.42776327     0.25500
C3336       C  0.78233791  0.20093558  0.42087295    -0.40800
C3337       C  0.78785709  0.21797690  0.42358261     0.32500
C3338       C  0.78414312  0.22177538  0.43296496     0.14200
F3339       F  0.75969731  0.17880138  0.44353658    -0.13100
F3340       F  0.79641296  0.23098587  0.41708966    -0.13600
F3341       F  0.76791149  0.17131852  0.42569858    -0.15900
F3342       F  0.78960176  0.23828030  0.43539386    -0.14500
F3343       F  0.79941973  0.22726777  0.45443057    -0.14500
F3344       F  0.73195854  0.20551245  0.46286028    -0.15900
C3345       C  0.81050828  0.49486085  0.55268484     0.14200
C3346       C  0.81854511  0.48764525  0.54724013     0.01100
C3347       C  0.81806722  0.48794083  0.53682699     0.16100
C3348       C  0.80942698  0.49504106  0.53194599     0.25500
C3349       C  0.80091345  0.50175873  0.53740500    -0.40800
C3350       C  0.80170304  0.50176210  0.54782288     0.32600
C3351       C  0.82692090  0.47933462  0.55243676     0.01200
F3352       F  0.82537164  0.48070300  0.53138646    -0.13100
F3353       F  0.79408015  0.50861845  0.55331839    -0.13700
C3354       C  0.81743134  0.46553352  0.55886692     0.16100
C3355       C  0.82530844  0.45785771  0.56393631     0.25500
C3356       C  0.84267692  0.46335972  0.56237446    -0.40800
C3357       C  0.85209436  0.47694569  0.55577861     0.32500
C3358       C  0.84435809  0.48507091  0.55099932     0.14200
F3359       F  0.80043316  0.45930255  0.56010804    -0.13100
F3360       F  0.86886144  0.48251056  0.55410335    -0.13600
F3361       F  0.81592696  0.44487470  0.57031286    -0.15900
F3362       F  0.85395299  0.49875754  0.54511071    -0.14500
F3363       F  0.81122710  0.49525325  0.56273823    -0.14500
F3364       F  0.80864567  0.49452496  0.52189798    -0.15900
C3365       C  0.79251968  0.58205846  0.46266708     0.14200
C3366       C  0.77929390  0.57880191  0.45600834     0.01100
C3367       C  0.76230506  0.56775736  0.45883852     0.16100
C3368       C  0.75855847  0.56006487  0.46819122     0.25500
C3369       C  0.77178449  0.56333267  0.47492139    -0.40800
C3370       C  0.78881746  0.57445496  0.47204660     0.32600
C3371       C  0.78322965  0.58662213  0.44602287     0.01200
F3372       F  0.74934791  0.56403911  0.45241191    -0.13100
F3373       F  0.80191372  0.57836975  0.47839438    -0.13700
C3374       C  0.79240061  0.58257448  0.43924658     0.16100
C3375       C  0.79604822  0.58977124  0.42977300     0.25500
C3376       C  0.79070969  0.60130691  0.42689495    -0.40800
C3377       C  0.78136323  0.60524391  0.43369455     0.32500
C3378       C  0.77764163  0.59792467  0.44316818     0.14200
F3379       F  0.79742381  0.57123651  0.44172480    -0.13100
F3380       F  0.77615480  0.61646506  0.43129305    -0.13600
F3381       F  0.80423651  0.58488469  0.42329401    -0.15900
F3382       F  0.76879350  0.60205884  0.44962678    -0.14500
F3383       F  0.80904594  0.59282334  0.46012447    -0.14500
F3384       F  0.74200237  0.54895683  0.47048481    -0.15900
C3385       C  0.61885740  0.53700402  0.62441288     0.14200
C3386       C  0.60122150  0.53045266  0.62316881     0.01100
C3387       C  0.59380434  0.53961210  0.62707805     0.16100
C3388       C  0.60387220  0.55514929  0.63198902     0.25500
C3389       C  0.62152900  0.56172482  0.63321675    -0.40800
C3390       C  0.62887583  0.55237887  0.62945730     0.32600
C3391       C  0.59082299  0.51444400  0.61746217     0.01200
F3392       F  0.57675242  0.53343880  0.62621363    -0.13100
F3393       F  0.64591916  0.55846437  0.63024297    -0.13700
C3394       C  0.59114308  0.49949580  0.61991082     0.16100
C3395       C  0.58279746  0.48497248  0.61391137     0.25500
C3396       C  0.57373269  0.48504407  0.60548668    -0.40800
C3397       C  0.57263921  0.49961457  0.60330993     0.32500
C3398       C  0.58125507  0.51426733  0.60918481     0.14200
F3399       F  0.59970626  0.49903322  0.62805888    -0.13100
F3400       F  0.56373962  0.49981720  0.59526257    -0.13600
F3401       F  0.58381460  0.47091487  0.61619485    -0.15900
F3402       F  0.58091152  0.52853550  0.60650624    -0.14500
F3403       F  0.62654868  0.52883921  0.62039375    -0.14500
F3404       F  0.59625185  0.56358276  0.63570991    -0.15900
C3405       C  0.65399708  0.47378415  0.54289321     0.14200
C3406       C  0.64787807  0.48480241  0.54535894     0.01100
C3407       C  0.65695472  0.50189361  0.54220573     0.16100
C3408       C  0.67219851  0.50796137  0.53686209     0.25500
C3409       C  0.67869359  0.49707725  0.53478101    -0.40800
C3410       C  0.66932769  0.47988372  0.53772532     0.32600
C3411       C  0.63233902  0.47840482  0.55152046     0.01200
F3412       F  0.65144048  0.51284916  0.54466963    -0.13100
F3413       F  0.67500315  0.46894289  0.53556435    -0.13700
C3414       C  0.63232378  0.47293420  0.56127104     0.16100
C3415       C  0.61735503  0.46563460  0.56690748     0.25500
C3416       C  0.60218746  0.46372057  0.56288041    -0.40800
C3417       C  0.60224470  0.46945687  0.55320120     0.32500
C3418       C  0.61724850  0.47680139  0.54755755     0.14200
F3419       F  0.64682713  0.47457999  0.56529147    -0.13100
F3420       F  0.58769314  0.46771107  0.54920282    -0.13600
F3421       F  0.61754282  0.46014086  0.57624044    -0.15900
F3422       F  0.61693374  0.48183322  0.53812455    -0.14500
F3423       F  0.64511746  0.45708576  0.54556675    -0.14500
F3424       F  0.68107362  0.52466680  0.53421079    -0.15900
C3425       C  0.51330644  0.32969759  0.54293896     0.14200
C3426       C  0.50415559  0.33827572  0.54423170     0.01100
C3427       C  0.48758195  0.33111294  0.54026664     0.16100
C3428       C  0.47992053  0.31508983  0.53561816     0.25500
C3429       C  0.48875517  0.30602866  0.53488692    -0.40800
C3430       C  0.50573959  0.31380309  0.53828263     0.32600
C3431       C  0.51171543  0.35420826  0.55015860     0.01200
F3432       F  0.47853324  0.33925883  0.54130253    -0.13100
F3433       F  0.51514519  0.30607733  0.53704181    -0.13700
C3434       C  0.51421905  0.36954764  0.54603216     0.16100
C3435       C  0.52155877  0.38453555  0.55169989     0.25500
C3436       C  0.52662291  0.38440966  0.56152332    -0.40800
C3437       C  0.52415730  0.36910093  0.56564534     0.32500
C3438       C  0.51668093  0.35410546  0.56003188     0.14200
F3439       F  0.50972481  0.37003380  0.53649296    -0.13100
F3440       F  0.52876570  0.36866842  0.57517156    -0.13600
F3441       F  0.52346095  0.39912528  0.54768601    -0.15900
F3442       F  0.51394998  0.33936401  0.56429820    -0.14500
F3443       F  0.52961729  0.33670504  0.54627086    -0.14500
F3444       F  0.46360429  0.30811224  0.53231205    -0.15900
C3445       C  0.41720015  0.19874820  0.46036675     0.14200
C3446       C  0.40403698  0.20199082  0.45786442     0.01100
C3447       C  0.39802796  0.20893494  0.46503564     0.16100
C3448       C  0.40511086  0.21265568  0.47456289     0.25500
C3449       C  0.41832622  0.20945702  0.47708749    -0.40800
C3450       C  0.42424738  0.20238529  0.46989957     0.32600
C3451       C  0.39605194  0.19750314  0.44791375     0.01200
F3452       F  0.38495723  0.21167764  0.46287078    -0.13100
F3453       F  0.43721655  0.19945166  0.47198716    -0.13700
C3454       C  0.38706216  0.18038865  0.44487056     0.16100
C3455       C  0.37859130  0.17588651  0.43574127     0.25500
C3456       C  0.37923944  0.18849352  0.42932451    -0.40800
C3457       C  0.38858587  0.20574634  0.43236196     0.32500
C3458       C  0.39679314  0.21015439  0.44158964     0.14200
F3459       F  0.38601918  0.16792289  0.45091631    -0.13100
F3460       F  0.39015840  0.21847810  0.42636838    -0.13600
F3461       F  0.36921623  0.15907408  0.43341150    -0.15900
F3462       F  0.40566236  0.22683950  0.44431617    -0.14500
F3463       F  0.42340645  0.19228847  0.45351772    -0.14500
F3464       F  0.39864633  0.21885294  0.48141068    -0.15900
C3465       C  0.59611246  0.09381553  0.61544136     0.14200
C3466       C  0.59487753  0.07815099  0.61288847     0.01100
C3467       C  0.58376858  0.06837876  0.60516201     0.16100
C3468       C  0.57463153  0.07446073  0.59986293     0.25500
C3469       C  0.57620409  0.09024385  0.60229334    -0.40800
C3470       C  0.58675217  0.09974280  0.61022249     0.32600
C3471       C  0.60582325  0.07248210  0.61790236     0.01200
F3472       F  0.58187517  0.05299302  0.60268426    -0.13100
F3473       F  0.58842507  0.11504976  0.61266408    -0.13700
C3474       C  0.60628111  0.07163812  0.62830784     0.16100
C3475       C  0.61722598  0.06704760  0.63296422     0.25500
C3476       C  0.62755291  0.06273850  0.62729799    -0.40800
C3477       C  0.62686439  0.06328329  0.61690640     0.32500
C3478       C  0.61630938  0.06833753  0.61226399     0.14200
F3479       F  0.59591456  0.07498182  0.63396926    -0.13100
F3480       F  0.63690812  0.05953322  0.61122061    -0.13600
F3481       F  0.61734352  0.06633445  0.64301008    -0.15900
F3482       F  0.61674896  0.06969482  0.60223539    -0.14500
F3483       F  0.60697940  0.10376363  0.62268510    -0.14500
F3484       F  0.56447930  0.06512534  0.59221307    -0.15900
C3485       C  0.62132332  0.16663657  0.55323488     0.14200
C3486       C  0.62757738  0.15741619  0.54812915     0.01100
C3487       C  0.61870158  0.13951607  0.54863109     0.16100
C3488       C  0.60382534  0.13092690  0.55432807     0.25500
C3489       C  0.59778010  0.14020152  0.55961785    -0.40800
C3490       C  0.60652879  0.15808753  0.55894702     0.32600
C3491       C  0.64388376  0.16663625  0.54273613     0.01200
F3492       F  0.62473320  0.13045307  0.54383011    -0.13100
F3493       F  0.60088944  0.16725092  0.56401333    -0.13700
C3494       C  0.65927511  0.17463977  0.54804382     0.16100
C3495       C  0.67478435  0.18423082  0.54308516     0.25500
C3496       C  0.67513441  0.18599004  0.53270838    -0.40800
C3497       C  0.65966103  0.17761545  0.52738211     0.32500
C3498       C  0.64413782  0.16803149  0.53238064     0.14200
F3499       F  0.65922218  0.17320977  0.55806171    -0.13100
F3500       F  0.65944671  0.17937126  0.51740416    -0.13600
F3501       F  0.68947103  0.19165709  0.54843798    -0.15900
F3502       F  0.62930554  0.16058285  0.52716162    -0.14500
F3503       F  0.62971039  0.18394638  0.55277370    -0.14500
F3504       F  0.59544479  0.11362069  0.55481217    -0.15900
C3505       C  0.49831173  0.13756419  0.55098616     0.14200
C3506       C  0.50570502  0.15542644  0.55132997     0.01100
C3507       C  0.52102892  0.16515582  0.55660603     0.16100
C3508       C  0.52861092  0.15717904  0.56165383     0.25500
C3509       C  0.52094946  0.13932573  0.56157281    -0.40800
C3510       C  0.50585124  0.12956686  0.55612176     0.32600
C3511       C  0.49734634  0.16407481  0.54650651     0.01200
F3512       F  0.52863777  0.18243996  0.55686622    -0.13100
F3513       F  0.49835681  0.11229490  0.55589179    -0.13700
C3514       C  0.49225061  0.17366198  0.55226173     0.16100
C3515       C  0.48579211  0.18315898  0.54776374     0.25500
C3516       C  0.48429882  0.18330275  0.53738094    -0.40800
C3517       C  0.48879449  0.17315404  0.53163608     0.32500
C3518       C  0.49524169  0.16360813  0.53616998     0.14200
F3519       F  0.49358835  0.17384926  0.56228965    -0.13100
F3520       F  0.48776136  0.17310332  0.52160157    -0.13600
F3521       F  0.48079531  0.19204872  0.55361131    -0.15900
F3522       F  0.50011144  0.15448638  0.53043282    -0.14500
F3523       F  0.48355843  0.12785912  0.54592618    -0.14500
F3524       F  0.54327887  0.16685109  0.56679845    -0.15900
C3525       C  0.22038068  0.79560194  0.52554799     0.14200
C3526       C  0.20318389  0.79101071  0.52663557     0.01100
C3527       C  0.19148569  0.78160048  0.51912612     0.16100
C3528       C  0.19683314  0.77658574  0.51069286     0.25500
C3529       C  0.21401792  0.78085739  0.50964260    -0.40800
C3530       C  0.22577066  0.79055012  0.51713823     0.32600
C3531       C  0.19727665  0.79508550  0.53590243     0.01200
F3532       F  0.17485801  0.77729496  0.51997215    -0.13100
F3533       F  0.24233528  0.79454701  0.51654842    -0.13700
C3534       C  0.20145723  0.81189759  0.53807198     0.16100
C3535       C  0.19654689  0.81574265  0.54711349     0.25500
C3536       C  0.18760381  0.80284894  0.55420437    -0.40800
C3537       C  0.18318754  0.78593759  0.55188387     0.32500
C3538       C  0.18787584  0.78211123  0.54278658     0.14200
F3539       F  0.21022271  0.82455811  0.53140149    -0.13100
F3540       F  0.17500629  0.77316729  0.55856708    -0.13600
F3541       F  0.20029795  0.83202490  0.54884803    -0.15900
F3542       F  0.18370845  0.76576823  0.54080437    -0.14500
F3543       F  0.23183783  0.80450187  0.53280635    -0.14500
F3544       F  0.18522279  0.76783442  0.50348057    -0.15900
C3545       C  0.32581732  0.09806989  0.69078906     0.14200
C3546       C  0.33897955  0.10771208  0.69759594     0.01100
C3547       C  0.35392691  0.10662067  0.69730508     0.16100
C3548       C  0.35578822  0.09628311  0.69029854     0.25500
C3549       C  0.34268903  0.08670103  0.68343413    -0.40800
C3550       C  0.32763608  0.08763943  0.68378807     0.32600
C3551       C  0.33739879  0.11916149  0.70490227     0.01200
F3552       F  0.36667114  0.11538400  0.70395005    -0.13100
F3553       F  0.31490184  0.07893030  0.67713431    -0.13700
C3554       C  0.32387407  0.11274090  0.71176306     0.16100
C3555       C  0.32298092  0.12352129  0.71892039     0.25500
C3556       C  0.33572370  0.14087416  0.71941629    -0.40800
C3557       C  0.34907314  0.14729119  0.71244608     0.32500
C3558       C  0.34982320  0.13659472  0.70523454     0.14200
F3559       F  0.31186100  0.09590059  0.71175872    -0.13100
F3560       F  0.36130968  0.16405499  0.71250349    -0.13600
F3561       F  0.31005498  0.11682365  0.72561565    -0.15900
F3562       F  0.36268265  0.14332253  0.69849634    -0.14500
F3563       F  0.31138697  0.09912729  0.69073079    -0.14500
F3564       F  0.37024761  0.09528366  0.69044872    -0.15900
C3565       C  0.26158935  0.94370101  0.63971770     0.14200
C3566       C  0.26436750  0.93576281  0.63156961     0.01100
C3567       C  0.28070153  0.94340711  0.62730675     0.16100
C3568       C  0.29403091  0.95873531  0.63108425     0.25500
C3569       C  0.29140207  0.96670829  0.63935225    -0.40800
C3570       C  0.27493822  0.95896456  0.64359103     0.32600
C3571       C  0.25023442  0.91967405  0.62736132     0.01200
F3572       F  0.28379282  0.93591171  0.61948595    -0.13100
F3573       F  0.27172086  0.96588769  0.65163222    -0.13700
C3574       C  0.24505799  0.91919480  0.61749707     0.16100
C3575       C  0.23235383  0.90391387  0.61330135     0.25500
C3576       C  0.22450833  0.88873047  0.61888911    -0.40800
C3577       C  0.22939500  0.88932218  0.62886659     0.32500
C3578       C  0.24217995  0.90465031  0.63304774     0.14200
F3579       F  0.25228701  0.93362159  0.61192587    -0.13100
F3580       F  0.22237907  0.87493173  0.63445919    -0.13600
F3581       F  0.22753508  0.90407281  0.60379439    -0.15900
F3582       F  0.24715296  0.90468934  0.64254663    -0.14500
F3583       F  0.24583705  0.93677886  0.64385331    -0.14500
F3584       F  0.30935811  0.96589817  0.62642237    -0.15900
C3585       C  0.44491316  0.05362794  0.62618124     0.14200
C3586       C  0.45362473  0.06994201  0.62191363     0.01100
C3587       C  0.44779865  0.08143930  0.62369681     0.16100
C3588       C  0.43344341  0.07670785  0.62961775     0.25500
C3589       C  0.42460806  0.06033090  0.63391189    -0.40800
C3590       C  0.43059973  0.04888141  0.63216642     0.32600
C3591       C  0.46900073  0.07523013  0.61574910     0.01200
F3592       F  0.45585184  0.09720074  0.61951224    -0.13100
F3593       F  0.42291271  0.03322029  0.63645783    -0.13700
C3594       C  0.46802696  0.06667538  0.60684847     0.16100
C3595       C  0.48235433  0.07270707  0.60068847     0.25500
C3596       C  0.49779884  0.08722719  0.60341625    -0.40800
C3597       C  0.49893767  0.09535561  0.61245703     0.32500
C3598       C  0.48464876  0.08942237  0.61857597     0.14200
F3599       F  0.45307109  0.05290394  0.60396306    -0.13100
F3600       F  0.51381210  0.10935589  0.61519795    -0.13600
F3601       F  0.48110465  0.06466150  0.59197387    -0.15900
F3602       F  0.48601696  0.09762192  0.62724562    -0.14500
F3603       F  0.45051330  0.04242049  0.62473470    -0.14500
F3604       F  0.42792331  0.08801684  0.63083082    -0.15900
C3605       C  0.87497562  0.63092337  0.68754873     0.14200
C3606       C  0.88123590  0.64268002  0.69541628     0.01100
C3607       C  0.89891548  0.65405387  0.69612386     0.16100
C3608       C  0.91018722  0.65335717  0.68927603     0.25500
C3609       C  0.90397539  0.64141598  0.68145455    -0.40800
C3610       C  0.88618791  0.63036134  0.68061254     0.32600
C3611       C  0.86950316  0.64263278  0.70315007     0.01200
F3612       F  0.90533747  0.66547805  0.70368255    -0.13100
F3613       F  0.87953105  0.61920503  0.67294518    -0.13700
C3614       C  0.85975126  0.62801006  0.70895493     0.16100
C3615       C  0.84952683  0.62821606  0.71668210     0.25500
C3616       C  0.84887300  0.64312942  0.71882534    -0.40800
C3617       C  0.85832613  0.65763235  0.71279896     0.32500
C3618       C  0.86849266  0.65735473  0.70504846     0.14200
F3619       F  0.86048623  0.61360483  0.70730904    -0.13100
F3620       F  0.85745311  0.67200874  0.71423026    -0.13600
F3621       F  0.84052404  0.61384929  0.72217222    -0.15900
F3622       F  0.87719137  0.67142551  0.69928310    -0.14500
F3623       F  0.85793303  0.62007103  0.68651388    -0.14500
F3624       F  0.92721566  0.66391607  0.69057860    -0.15900
C3625       C  0.05657879  0.70752474  0.63728551     0.14200
C3626       C  0.05863315  0.72262379  0.63304672     0.01100
C3627       C  0.04441782  0.72496814  0.63241574     0.16100
C3628       C  0.02840967  0.71233120  0.63580225     0.25500
C3629       C  0.02629421  0.69702360  0.63969404    -0.40800
C3630       C  0.04051363  0.69477846  0.64049873     0.32600
C3631       C  0.07537070  0.73566136  0.62895033     0.01200
F3632       F  0.04586740  0.73918732  0.62811824    -0.13100
F3633       F  0.03885459  0.68025586  0.64448033    -0.13700
C3634       C  0.08370419  0.73113199  0.62181257     0.16100
C3635       C  0.09895402  0.74360523  0.61750188     0.25500
C3636       C  0.10606048  0.76093229  0.62013004    -0.40800
C3637       C  0.09776628  0.76537788  0.62735793     0.32500
C3638       C  0.08273266  0.75284433  0.63181515     0.14200
F3639       F  0.07683075  0.71466660  0.61879077    -0.13100
F3640       F  0.10374873  0.78194216  0.62984399    -0.13600
F3641       F  0.10677317  0.73863214  0.61080473    -0.41100
F3642       F  0.07529193  0.75752812  0.63892733    -0.14500
F3643       F  0.07013472  0.70511571  0.63832687    -0.14500
F3644       F  0.01480440  0.71466117  0.63476547    -0.15900
C3645       C  0.92637535  0.54592001  0.61491317     0.14200
C3646       C  0.91698082  0.53067090  0.62031025     0.01100
C3647       C  0.91415899  0.53165320  0.63047666     0.16100
C3648       C  0.92001850  0.54748697  0.63506398     0.25500
C3649       C  0.92927789  0.56272091  0.62966240    -0.40800
C3650       C  0.93265376  0.56178831  0.61957164     0.32600
C3651       C  0.90928999  0.51383534  0.61521989     0.01200
F3652       F  0.90576296  0.51723826  0.63600222    -0.13100
F3653       F  0.94133690  0.57620729  0.61408229    -0.13700
C3654       C  0.91925003  0.50960992  0.60911212     0.16100
C3655       C  0.91154864  0.49447512  0.60358582     0.25500
C3656       C  0.89389193  0.48320725  0.60425644    -0.40800
C3657       C  0.88407526  0.48690929  0.61070838     0.32500
C3658       C  0.89164416  0.50217648  0.61606207     0.14200
F3659       F  0.93639061  0.52021131  0.60841821    -0.13100
F3660       F  0.86701870  0.47596210  0.61152622    -0.13600
F3661       F  0.92119305  0.49102124  0.59735299    -0.15900
F3662       F  0.88154645  0.50592955  0.62169074    -0.14500
F3663       F  0.92886801  0.54547208  0.60502102    -0.14500
F3664       F  0.91689625  0.54790330  0.64486470    -0.15900
C3665       C  0.19129869  0.42781979  0.52655706     0.14200
C3666       C  0.19502353  0.41496453  0.52895868     0.01100
C3667       C  0.20341425  0.41029207  0.52193979     0.16100
C3668       C  0.20814283  0.41846550  0.51269742     0.25500
C3669       C  0.20453967  0.43146505  0.51029948    -0.40800
C3670       C  0.19596081  0.43596413  0.51733396     0.32600
C3671       C  0.19049347  0.40675087  0.53887528     0.01200
F3672       F  0.20681532  0.39762856  0.52400204    -0.13100
F3673       F  0.19262978  0.44872669  0.51546689    -0.13700
C3674       C  0.17335461  0.39727237  0.54189517     0.16100
C3675       C  0.16913387  0.38968702  0.55129828     0.25500
C3676       C  0.18201447  0.39151139  0.55791209    -0.40800
C3677       C  0.19920787  0.40126059  0.55488543     0.32500
C3678       C  0.20336428  0.40872555  0.54546477     0.14200
F3679       F  0.16065754  0.39511747  0.53565152    -0.13100
F3680       F  0.21211654  0.40411657  0.56114391    -0.13600
F3681       F  0.15239685  0.38018211  0.55378537    -0.15900
F3682       F  0.22004862  0.41831356  0.54286259    -0.14500
F3683       F  0.18357671  0.43285867  0.53328713    -0.14500
F3684       F  0.21584977  0.41335155  0.50600866    -0.15900
C3685       C  0.88053308  0.25436936  0.70303045     0.14200
C3686       C  0.87779370  0.23765462  0.70284386     0.01100
C3687       C  0.88633178  0.23335274  0.69571734     0.16100
C3688       C  0.89743481  0.24556231  0.68891346     0.25500
C3689       C  0.89989969  0.26217838  0.68898004    -0.40800
C3690       C  0.89136790  0.26647321  0.69611498     0.32600
C3691       C  0.86584198  0.22470426  0.70998936     0.01200
F3692       F  0.88343888  0.21714825  0.69511942    -0.13100
F3693       F  0.89375842  0.28250580  0.69651023    -0.13700
C3694       C  0.84883092  0.22101372  0.71059155     0.16100
C3695       C  0.83761594  0.20913663  0.71745931     0.25500
C3696       C  0.84310936  0.20050632  0.72381578    -0.40800
C3697       C  0.86012315  0.20408575  0.72313974     0.32500
C3698       C  0.87138833  0.21612932  0.71631979     0.14200
F3699       F  0.84297285  0.22875541  0.70440602    -0.13100
F3700       F  0.86604431  0.19634061  0.72927800    -0.13600
F3701       F  0.82126064  0.20588590  0.71774509    -0.15900
F3702       F  0.88787064  0.21977040  0.71608569    -0.14500
F3703       F  0.87280343  0.25901431  0.70998335    -0.14500
F3704       F  0.90515791  0.24090719  0.68196914    -0.15900
C3705       C  0.04456895  0.33163511  0.64472849     0.14200
C3706       C  0.04798229  0.33267878  0.63452498     0.01100
C3707       C  0.03519710  0.33028527  0.62774715     0.16100
C3708       C  0.01924823  0.32703969  0.63111636     0.25500
C3709       C  0.01579927  0.32607517  0.64133363    -0.40800
C3710       C  0.02856615  0.32831919  0.64811923     0.32600
C3711       C  0.06496964  0.33660003  0.63089209     0.01200
F3712       F  0.03815692  0.33098551  0.61784851    -0.13100
F3713       F  0.02580338  0.32804112  0.65801962    -0.13700
C3714       C  0.07024508  0.32448408  0.63168039     0.16100
C3715       C  0.08599779  0.32793959  0.62777126     0.25500
C3716       C  0.09662652  0.34353604  0.62293266    -0.40800
C3717       C  0.09144666  0.35579308  0.62238833     0.32500
C3718       C  0.07576480  0.35234714  0.62634139     0.14200
F3719       F  0.05985692  0.30908644  0.63593549    -0.13100
F3720       F  0.10169118  0.37124309  0.61815533    -0.13600
F3721       F  0.09046745  0.31573124  0.62832424    -0.15900
F3722       F  0.07108991  0.36440609  0.62575125    -0.14500
F3723       F  0.05691986  0.33433488  0.65139058    -0.14500
F3724       F  0.00705624  0.32452726  0.62437786    -0.15900
C3725       C  0.91781746  0.38368287  0.62726393     0.14200
C3726       C  0.90228128  0.37509542  0.62203644     0.01100
C3727       C  0.89264138  0.35714942  0.62246293     0.16100
C3728       C  0.89843407  0.34798956  0.62799731     0.25500
C3729       C  0.91416092  0.35657926  0.63297716    -0.40800
C3730       C  0.92378536  0.37448302  0.63260175     0.32600
C3731       C  0.89630287  0.38477594  0.61597435     0.01200
F3732       F  0.87791212  0.34844592  0.61721975    -0.13100
F3733       F  0.93883760  0.38307282  0.63755907    -0.13700
C3734       C  0.90682973  0.39604705  0.60853869     0.16100
C3735       C  0.90101875  0.40479488  0.60264115     0.25500
C3736       C  0.88456508  0.40231590  0.60400580    -0.40800
C3737       C  0.87410200  0.39127457  0.61149768     0.32500
C3738       C  0.87994139  0.38260826  0.61746452     0.14200
F3739       F  0.92259607  0.39827931  0.60682635    -0.13100
F3740       F  0.85828281  0.38899368  0.61305102    -0.13600
F3741       F  0.91137628  0.41559706  0.59551209    -0.15900
F3742       F  0.86971513  0.37226679  0.62479134    -0.14500
F3743       F  0.92715143  0.40100061  0.62726622    -0.14500
F3744       F  0.88905530  0.33067526  0.62812467    -0.15900
C3745       C  0.33125965  0.25131417  0.69946976     0.14200
C3746       C  0.34159442  0.24388291  0.69847109     0.01100
C3747       C  0.35277148  0.24852413  0.69035343     0.16100
C3748       C  0.35361260  0.26032164  0.68338243     0.25500
C3749       C  0.34311401  0.26760973  0.68428623    -0.40800
C3750       C  0.33189917  0.26293941  0.69241090     0.32600
C3751       C  0.34058005  0.23115013  0.70579013     0.01200
F3752       F  0.36256881  0.24124548  0.68898842    -0.13100
F3753       F  0.32185296  0.26994736  0.69370498    -0.13700
C3754       C  0.32474896  0.21681157  0.70818249     0.16100
C3755       C  0.32373391  0.20487657  0.71511959     0.25500
C3756       C  0.33860243  0.20685780  0.71972857    -0.40800
C3757       C  0.35452978  0.22096766  0.71706008     0.32500
C3758       C  0.35545115  0.23309176  0.71030567     0.14200
F3759       F  0.31021623  0.21416494  0.70366367    -0.13100
F3760       F  0.36931387  0.22323932  0.72103121    -0.13600
F3761       F  0.30813982  0.19130102  0.71721811    -0.15900
F3762       F  0.37092033  0.24696549  0.70834437    -0.14500
F3763       F  0.32074621  0.24756489  0.70739914    -0.14500
F3764       F  0.36428593  0.26406582  0.67554203    -0.15900
C3765       C  0.27241770  0.34598101  0.63553254     0.14200
C3766       C  0.25648031  0.33168774  0.63336117     0.01100
C3767       C  0.25416335  0.31525440  0.63446138     0.16100
C3768       C  0.26766000  0.31310181  0.63768255     0.25500
C3769       C  0.28377785  0.32741260  0.63964890    -0.40800
C3770       C  0.28601562  0.34387290  0.63857431     0.32600
C3771       C  0.24269891  0.33390697  0.62912769     0.01200
F3772       F  0.23891733  0.30132756  0.63216070    -0.13100
F3773       F  0.30137260  0.35793172  0.64049447    -0.13700
C3774       C  0.23968201  0.33201489  0.61889823     0.16100
C3775       C  0.22678290  0.33416735  0.61471602     0.25500
C3776       C  0.21671097  0.33840853  0.62070767    -0.40800
C3777       C  0.21963252  0.34006399  0.63101981     0.32500
C3778       C  0.23257622  0.33786386  0.63518529     0.14200
F3779       F  0.24939847  0.32822032  0.61294061    -0.13100
F3780       F  0.21040116  0.34437912  0.63704326    -0.13600
F3781       F  0.22398568  0.33177436  0.60481101    -0.15900
F3782       F  0.23527769  0.33964389  0.64511959    -0.14500
F3783       F  0.27493681  0.36197797  0.63439804    -0.14500
F3784       F  0.26521160  0.29707546  0.63837532    -0.15900
C3785       C  0.47157489  0.40598789  0.60854923     0.14200
C3786       C  0.46709503  0.39129366  0.61419635     0.01100
C3787       C  0.47806251  0.38449123  0.61433912     0.16100
C3788       C  0.49323901  0.39226860  0.60887410     0.25500
C3789       C  0.49762415  0.40693988  0.60324341    -0.40800
C3790       C  0.48670457  0.41371664  0.60309706     0.32600
C3791       C  0.45074216  0.38285484  0.61968116     0.01200
F3792       F  0.47384846  0.37008912  0.61955384    -0.13100
F3793       F  0.49065144  0.42771914  0.59754928    -0.13700
C3794       C  0.43525519  0.37707666  0.61459088     0.16100
C3795       C  0.41974232  0.36906392  0.61969763     0.25500
C3796       C  0.41941020  0.36638307  0.62998365    -0.40800
C3797       C  0.43496890  0.37245559  0.63510297     0.32500
C3798       C  0.45050216  0.38066951  0.62999367     0.14200
F3799       F  0.43513644  0.37876691  0.60459791    -0.13100
F3800       F  0.43517744  0.37077369  0.64509007    -0.13600
F3801       F  0.40503464  0.36330740  0.61448473    -0.15900
F3802       F  0.46533629  0.38672613  0.63513117    -0.14500
F3803       F  0.46129980  0.41289267  0.60835818    -0.14500
F3804       F  0.50357749  0.38542668  0.60896718    -0.15900
loop_ 
_geom_bond_atom_site_label_1 
_geom_bond_atom_site_label_2 
_geom_bond_distance 
_geom_bond_site_symmetry_2 
_ccdc_geom_bond_type 
N1            N2   1.321       .  A
N1            C5   1.347       .  A
N1           Cu9   2.082       .  S
N2            C3   1.342       .  A
N2           Cu8   2.066       .  S
C3            C4   1.385       .  A
C3            H6   1.081       .  S
C4            C5   1.389       .  A
C4         C3749   1.485       .  S
C5            H7   1.081       .  S
Cu8          N11   2.065       .  S
Cu9          N19   2.083       .  S
Cu10         N12   2.076       .  S
Cu10         N18   2.077       .  S
N11          N12   1.320       .  A
N11          C15   1.343       .  A
N12          C13   1.346       .  A
C13          C14   1.388       .  A
C13          H16   1.082       .  S
C14          C15   1.384       .  A
C14        C3796   1.481       .  S
C15          H17   1.082       .  S
N18          N19   1.323       .  A
N18          C22   1.344       .  A
N19          C20   1.348       .  A
C20          C21   1.386       .  A
C20          H23   1.082       .  S
C21          C22   1.383       .  A
C21        C3769   1.479       .  S
C22          H24   1.082       .  S
N25          N26   1.323       .  A
N25          C29   1.348       .  A
N25         Cu33   2.088       .  S
N26          C27   1.344       .  A
N26         Cu32   2.076       .  S
C27          C28   1.383       .  A
C27          H30   1.082       .  S
C28          C29   1.387       .  A
C28        C3689   1.481       .  S
C29          H31   1.082       .  S
Cu32         N35   2.075       .  S
Cu33         N43   2.088       .  S
Cu34         N36   2.065       .  S
Cu34         N42   2.065       .  S
N35          N36   1.321       .  A
N35          C39   1.346       .  A
N36          C37   1.344       .  A
C37          C38   1.382       .  A
C37          H40   1.082       .  S
C38          C39   1.384       .  A
C38        C3729   1.474       .  S
C39          H41   1.082       .  S
N42          N43   1.323       .  A
N42          C46   1.342       .  A
N43          C44   1.348       .  A
C44          C45   1.387       .  A
C44          H47   1.082       .  S
C45          C46   1.381       .  A
C45        C3709   1.479   1_655  S
C46          H48   1.082       .  S
N49          N50   1.323       .  A
N49          C53   1.347       .  A
N49         Cu57   2.079       .  S
N50          C51   1.344       .  A
N50         Cu56   2.082       .  S
C51          C52   1.385       .  A
C51          H54   1.082       .  S
C52          C53   1.386       .  A
C52        C3716   1.482       .  S
C53          H55   1.082       .  S
Cu56         N59   2.082       .  S
Cu57         N67   2.079       .  S
Cu58         N60   2.068       .  S
Cu58         N66   2.068       .  S
N59          N60   1.320       .  A
N59          C63   1.347       .  A
N60          C61   1.344       .  A
C61          C62   1.388       .  A
C61          H64   1.081       .  S
C62          C63   1.391       .  A
C62        C3676   1.491       .  S
C63          H65   1.081       .  S
N66          N67   1.322       .  A
N66          C70   1.342       .  A
N67          C68   1.347       .  A
C68          C69   1.388       .  A
C68          H71   1.081       .  S
C69          C70   1.384       .  A
C69        C3776   1.484       .  S
C70          H72   1.081       .  S
N73          N74   1.324       .  A
N73          C77   1.347       .  A
N73         Cu81   2.082       .  S
N74          C75   1.341   1_655  A
N74         Cu80   2.064       .  S
C75          C76   1.379       .  A
C75          H78   1.082       .  S
C76          C77   1.385   1_455  A
C76        C3629   1.473       .  S
C77          H79   1.082       .  S
Cu80         N83   2.064       .  S
Cu81         N91   2.083       .  S
Cu82         N84   2.083       .  S
Cu82         N90   2.084       .  S
N83          N84   1.320       .  A
N83          C87   1.346       .  A
N84          C85   1.345       .  A
C85          C86   1.387       .  A
C85          H88   1.082       .  S
C86          C87   1.385       .  A
C86        C3649   1.483       .  S
C87          H89   1.082       .  S
N90          N91   1.322       .  A
N90          C94   1.345       .  A
N91          C92   1.348       .  A
C92          C93   1.390       .  A
C92          H95   1.082       .  S
C93          C94   1.388       .  A
C93        C3609   1.491       .  S
C94          H96   1.081       .  S
N97          N98   1.320       .  A
N97         C101   1.347   1_545  A
N97        Cu105   2.086       .  S
N98          C99   1.343   1_545  A
N98        Cu104   2.067       .  S
C99         C100   1.388       .  A
C99         H102   1.081       .  S
C100        C101   1.392       .  A
C100       C3569   1.494       .  S
C101        H103   1.081       .  S
Cu104       N107   2.066       .  S
Cu105       N115   2.086       .  S
Cu106       N108   2.080       .  S
Cu106       N114   2.080       .  S
N107        N108   1.321       .  A
N107        C111   1.343       .  A
N108        C109   1.346       .  A
C109        C110   1.390       .  A
C109        H112   1.081       .  S
C110        C111   1.385       .  A
C110       C3589   1.487       .  S
C111        H113   1.081       .  S
N114        N115   1.323       .  A
N114        C118   1.345       .  A
N115        C116   1.347       .  A
C116        C117   1.387       .  A
C116        H119   1.082       .  S
C117        C118   1.386       .  A
C117       C3549   1.486       .  S
C118        H120   1.082       .  S
N121        N122   1.323       .  A
N121        C125   1.349       .  A
N121       Cu129   2.088       .  S
N122        C123   1.345       .  A
N122       Cu128   2.084       .  S
C123        C124   1.386       .  A
C123        H126   1.082       .  S
C124        C125   1.389       .  A
C124       C3576   1.488       .  S
C125        H127   1.082       .  S
Cu128       N131   2.084       .  S
Cu129       N139   2.087       .  S
Cu130       N132   2.066       .  S
Cu130       N138   2.066       .  S
N131        N132   1.320       .  A
N131        C135   1.347       .  A
N132        C133   1.344       .  A
C133        C134   1.386       .  A
C133        H136   1.081       .  S
C134        C135   1.389       .  A
C134       C3536   1.487       .  S
C135        H137   1.082       .  S
N138        N139   1.322       .  A
N138        C142   1.343       .  A
N139        C140   1.346       .  A
C140        C141   1.389       .  A
C140        H143   1.081       .  S
C141        C142   1.384       .  A
C141       C3636   1.485       .  S
C142        H144   1.081       .  S
N145        C150   1.352       .  A
N145        C149   1.354       .  A
N145        H177   1.038       .  S
N146        C153   1.353       .  A
N146        C154   1.351       .  A
N147        C152   1.354       .  A
N147        C151   1.353       .  A
N147        H178   1.036       .  S
N148        C155   1.351       .  A
N148        C156   1.352       .  A
C149        C157   1.386       .  A
C149        C165   1.414       .  A
C150        C166   1.415       .  A
C150        C158   1.388       .  A
C151        C159   1.387       .  A
C151        C168   1.416       .  A
C152        C167   1.416       .  A
C152        C160   1.387       .  A
C153        C165   1.413       .  A
C153        C161   1.386       .  A
C154        C168   1.415       .  A
C154        C162   1.387       .  A
C155        C163   1.387       .  A
C155        C166   1.415       .  A
C156        C164   1.387       .  A
C156        C167   1.415       .  A
C157        C158   1.375       .  A
C157        H169   1.082       .  S
C158        H170   1.082       .  S
C159        C160   1.376       .  A
C159        H171   1.082       .  S
C160        H172   1.082       .  S
C161        C162   1.372       .  A
C161        H173   1.082       .  S
C162        H174   1.082       .  S
C163        C164   1.372       .  A
C163        H175   1.082       .  S
C164        H176   1.082       .  S
C165       C3509   1.489       .  S
C166       C3489   1.485       .  S
C167       C3469   1.486       .  S
C168       C3596   1.483       .  S
N179        N180   1.320       .  A
N179        C183   1.347       .  A
N179       Cu187   2.078       .  S
N180        C181   1.345       .  A
N180       Cu186   2.072       .  S
C181        C182   1.388       .  A
C181        H184   1.082       .  S
C182        C183   1.388       .  A
C182       C3516   1.487       .  S
C183        H185   1.082       .  S
Cu186       N189   2.072       .  S
Cu187       N197   2.079       .  S
Cu188       N190   2.079       .  S
Cu188       N196   2.080       .  S
N189        N190   1.322       .  A
N189        C193   1.340       .  A
N190        C191   1.349       .  A
C191        C192   1.388       .  A
C191        H194   1.082       .  S
C192        C193   1.383       .  A
C192       C3429   1.483       .  S
C193        H195   1.082       .  S
N196        N197   1.323       .  A
N196        C200   1.346       .  A
N197        C198   1.344       .  A
C198        C199   1.384       .  A
C198        H201   1.082       .  S
C199        C200   1.386       .  A
C199       C3449   1.482       .  S
C200        H202   1.082       .  S
N203        C208   1.354       .  A
N203        C207   1.355       .  A
N203        H235   1.036       .  S
N204        C211   1.351       .  A
N204        C212   1.352       .  A
N205        C210   1.353       .  A
N205        C209   1.352       .  A
N205        H236   1.034       .  S
N206        C213   1.353       .  A
N206        C214   1.353       .  A
C207        C215   1.386       .  A
C207        C223   1.417       .  A
C208        C224   1.419       .  A
C208        C216   1.388       .  A
C209        C217   1.387       .  A
C209        C226   1.416       .  A
C210        C225   1.417       .  A
C210        C218   1.388       .  A
C211        C223   1.413       .  A
C211        C219   1.386       .  A
C212        C226   1.413       .  A
C212        C220   1.386       .  A
C213        C221   1.386       .  A
C213        C224   1.416       .  A
C214        C222   1.387       .  A
C214        C225   1.418       .  A
C215        C216   1.376       .  A
C215        H227   1.082       .  S
C216        H228   1.082       .  S
C217        C218   1.374       .  A
C217        H229   1.082       .  S
C218        H230   1.082       .  S
C219        C220   1.369       .  A
C219        H231   1.082       .  S
C220        H232   1.082       .  S
C221        C222   1.371       .  A
C221        H233   1.082       .  S
C222        H234   1.082       .  S
C223       C3436   1.487       .  S
C224       C3416   1.488       .  S
C225       C3396   1.487       .  S
C226       C3789   1.482       .  S
N237        N238   1.321       .  A
N237        C241   1.349       .  A
N237       Cu245   2.083       .  S
N238        C239   1.342       .  A
N238       Cu244   2.066       .  S
C239        C240   1.383       .  A
C239        H242   1.082       .  S
C240        C241   1.389       .  A
C240       C3349   1.482       .  S
C241        H243   1.082       .  S
Cu244       N247   2.066       .  S
Cu245       N255   2.084       .  S
Cu246       N248   2.075       .  S
Cu246       N254   2.076       .  S
N247        N248   1.321       .  A
N247        C251   1.342       .  A
N248        C249   1.348       .  A
C249        C250   1.387       .  A
C249        H252   1.082       .  S
C250        C251   1.382       .  A
C250       C3409   1.478       .  S
C251        H253   1.082       .  S
N254        N255   1.324       .  A
N254        C258   1.344       .  A
N255        C256   1.346       .  A
C256        C257   1.387       .  A
C256        H259   1.081       .  S
C257        C258   1.385       .  A
C257       C3369   1.485       .  S
C258        H260   1.081       .  S
N261        N262   1.321       .  A
N261        C265   1.346       .  A
N261       Cu269   2.064       .  S
N262        C263   1.342       .  A
N262       Cu268   2.071       .  S
C263        C264   1.384       .  A
C263        H266   1.082       .  S
C264        C265   1.383       .  A
C264       C3316   1.476       .  S
C265        H267   1.082       .  S
Cu268       N271   2.070       .  S
Cu269       N279   2.065       .  S
Cu270       N272   2.074       .  S
Cu270       N278   2.075       .  S
N271        N272   1.321       .  A
N271        C275   1.343       .  A
N272        C273   1.346       .  A
C273        C274   1.387       .  A
C273        H276   1.082       .  S
C274        C275   1.384       .  A
C274       C3496   1.481       .  S
C275        H277   1.082       .  S
N278        N279   1.322       .  A
N278        C282   1.344       .  A
N279        C280   1.342       .  A
C280        C281   1.383       .  A
C280        H283   1.082       .  S
C281        C282   1.385       .  A
C281       C3329   1.478       .  S
C282        H284   1.082       .  S
N285        C290   1.354       .  A
N285        C289   1.357       .  A
N285        H317   1.036       .  S
N286        C293   1.354       .  A
N286        C294   1.352       .  A
N287        C292   1.353       .  A
N287        C291   1.351       .  A
N287        H318   1.037       .  S
N288        C295   1.351       .  A
N288        C296   1.353       .  A
C289        C297   1.389       .  A
C289        C305   1.423       .  A
C290        C306   1.419       .  A
C290        C298   1.386       .  A
C291        C299   1.387       .  A
C291        C308   1.413       .  A
C292        C307   1.414       .  A
C292        C300   1.387       .  A
C293        C305   1.419       .  A
C293        C301   1.387       .  A
C294        C308   1.416       .  A
C294        C302   1.386       .  A
C295        C303   1.387       .  A
C295        C306   1.416       .  A
C296        C304   1.385       .  A
C296        C307   1.414       .  A
C297        C298   1.374       .  A
C297        H309   1.082       .  S
C298        H310   1.082       .  S
C299        C300   1.375       .  A
C299        H311   1.082       .  S
C300        H312   1.082       .  S
C301        C302   1.371       .  A
C301        H313   1.081       .  S
C302        H314   1.082       .  S
C303        C304   1.372       .  A
C303        H315   1.082       .  S
C304        H316   1.082       .  S
C305       C3356   1.497       .  S
C306       C3309   1.486       .  S
C307       C3736   1.487       .  S
C308       C3656   1.482       .  S
N319        N320   1.324       .  A
N319        C323   1.347       .  A
N319       Cu327   2.089       .  S
N320        C321   1.346       .  A
N320       Cu326   2.080       .  S
C321        C322   1.385       .  A
C321        H324   1.082       .  S
C322        C323   1.386       .  A
C322       C3269   1.484       .  S
C323        H325   1.082       .  S
Cu326       N329   2.079       .  S
Cu327       N337   2.089       .  S
Cu328       N330   2.072       .  S
Cu328       N336   2.072       .  S
N329        N330   1.322       .  A
N329        C333   1.347       .  A
N330        C331   1.344       .  A
C331        C332   1.384       .  A
C331        H334   1.082       .  S
C332        C333   1.386       .  A
C332       C3476   1.481       .  S
C333        H335   1.082       .  S
N336        N337   1.322       .  A
N336        C340   1.343   1_545  A
N337        C338   1.349   1_545  A
C338        C339   1.389       .  A
C338        H341   1.082       .  S
C339        C340   1.383       .  A
C339       C3289   1.483       .  S
C340        H342   1.082       .  S
N343        N344   1.322       .  A
N343        C347   1.346       .  A
N343       Cu351   2.087       .  S
N344        C345   1.344       .  A
N344       Cu350   2.067       .  S
C345        C346   1.384       .  A
C345        H348   1.082       .  S
C346        C347   1.388       .  A
C346       C3229   1.483       .  S
C347        H349   1.082       .  S
Cu350       N353   2.067       .  S
Cu351       N361   2.087       .  S
Cu352       N354   2.084       .  S
Cu352       N360   2.085       .  S
N353        N354   1.321       .  A
N353        C357   1.344       .  A
N354        C355   1.346       .  A
C355        C356   1.388       .  A
C355        H358   1.082       .  S
C356        C357   1.385       .  A
C356       C3389   1.484       .  S
C357        H359   1.082       .  S
N360        N361   1.323       .  A
N360        C364   1.347       .  A
N361        C362   1.348       .  A
C362        C363   1.387       .  A
C362        H365   1.082       .  S
C363        C364   1.386       .  A
C363       C3256   1.486       .  S
C364        H366   1.082       .  S
N367        N368   1.322       .  A
N367        C371   1.349       .  A
N367       Cu375   2.101       .  S
N368        C369   1.344       .  A
N368       Cu374   2.068       .  S
C369        C370   1.386       .  A
C369        H372   1.081       .  S
C370        C371   1.394       .  A
C370       C3296   1.494       .  S
C371        H373   1.081       .  S
Cu374       N377   2.067       .  S
Cu375       N385   2.101       .  S
Cu376       N378   2.079       .  S
Cu376       N384   2.080       .  S
N377        N378   1.320       .  A
N377        C381   1.342       .  A
N378        C379   1.347       .  A
C379        C380   1.390       .  A
C379        H382   1.081       .  S
C380        C381   1.386       .  A
C380       C3216   1.487       .  S
C381        H383   1.081       .  S
N384        N385   1.323       .  A
N384        C388   1.344       .  A
N385        C386   1.351       .  A
C386        C387   1.393       .  A
C386        H389   1.081       .  S
C387        C388   1.387       .  A
C387       C3249   1.496       .  S
C388        H390   1.081       .  S
O391       Cu399   2.006       .  S
O391        C401   1.278       .  A
O392       Cu399   2.000       .  S
O392        C402   1.277       .  A
O393       Cu399   2.012       .  S
O393        C403   1.278       .  A
O394       Cu399   2.010       .  S
O394        C404   1.278       .  A
O395       Cu400   2.024       .  S
O395        C404   1.280       .  A
O396       Cu400   2.026       .  S
O396        C403   1.280       .  A
O397       Cu400   2.009       .  S
O397        C402   1.278       .  A
O398       Cu400   2.017       .  S
O398        C401   1.279       .  A
Cu399      Cu400   2.365       .  S
C401       C3189   1.488       .  S
C402       C3236   1.485       .  S
C403       C3616   1.493       .  S
C404       C3169   1.492       .  S
O405       Cu413   2.021       .  S
O405        C415   1.279       .  A
O406       Cu413   2.019       .  S
O406        C416   1.280       .  A
O407       Cu413   2.007       .  S
O407        C417   1.278       .  A
O408       Cu413   2.015       .  S
O408        C418   1.279       .  A
O409       Cu414   2.000       .  S
O409        C418   1.277       .  A
O410       Cu414   2.003       .  S
O410        C417   1.277       .  A
O411       Cu414   2.009       .  S
O411        C416   1.278       .  A
O412       Cu414   2.007       .  S
O412        C415   1.278       .  A
Cu413      Cu414   2.368       .  S
C415       C3276   1.482       .  S
C416       C3156   1.493       .  S
C417       C3136   1.483       .  S
C418       C3696   1.483       .  S
O419       Cu427   2.009       .  S
O419        C429   1.278       .  A
O420       Cu427   2.012       .  S
O420        C430   1.278       .  A
O421       Cu427   1.995       .  S
O421        C431   1.277       .  A
O422       Cu427   1.995       .  S
O422        C432   1.276       .  A
O423       Cu428   2.013       .  S
O423        C432   1.279       .  A
O424       Cu428   2.002       .  S
O424        C431   1.277       .  A
O425       Cu428   2.028       .  S
O425        C430   1.280       .  A
O426       Cu428   2.026       .  S
O426        C429   1.279       .  A
Cu427      Cu428   2.367       .  S
C429       C3556   1.485       .  S
C430       C3109   1.489       .  S
C431       C3096   1.482       .  S
C432       C3756   1.487       .  S
N433        N434   1.322       .  A
N433        C437   1.346       .  A
N433       Cu441   2.093       .  S
N434        C435   1.347       .  A
N434       Cu440   2.081       .  S
C435        C436   1.390       .  A
C435        H438   1.081       .  S
C436        C437   1.390       .  A
C436       C3116   1.495       .  S
C437        H439   1.081       .  S
Cu440       N443   2.080       .  S
Cu441       N451   2.093       .  S
Cu442       N444   2.075       .  S
Cu442       N450   2.075       .  S
N443        N444   1.322       .  A
N443        C447   1.346       .  A
N444        C445   1.346       .  A
C445        C446   1.384       .  A
C445        H448   1.082       .  S
C446        C447   1.384       .  A
C446       C3069   1.479       .  S
C447        H449   1.082       .  S
N450        N451   1.321       .  A
N450        C454   1.343       .  A
N451        C452   1.350       .  A
C452        C453   1.393       .  A
C452        H455   1.081       .  S
C453        C454   1.388       .  A
C453       C3056   1.495       .  S
C454        H456   1.081       .  S
N457        N458   1.323       .  A
N457        C461   1.346       .  A
N457       Cu465   2.083       .  S
N458        C459   1.349       .  A
N458       Cu464   2.092       .  S
C459        C460   1.388       .  A
C459        H462   1.082       .  S
C460        C461   1.385       .  A
C460       C3149   1.487       .  S
C461        H463   1.082       .  S
Cu464       N467   2.092       .  S
Cu465       N475   2.083       .  S
Cu466       N468   2.077       .  S
Cu466       N474   2.076       .  S
N467        N468   1.322       .  A
N467        C471   1.347       .  A
N468        C469   1.346       .  A
C469        C470   1.388       .  A
C469        H472   1.081       .  S
C470        C471   1.391       .  A
C470       C3029   1.492       .  S
C471        H473   1.081       .  S
N474        N475   1.321       .  A
N474        C478   1.345       .  A
N475        C476   1.348       .  A
C476        C477   1.388       .  A
C476        H479   1.082       .  S
C477        C478   1.386       .  A
C477       C3016   1.487   1_655  S
C478        H480   1.082       .  S
N481        N482   1.322       .  A
N481        C485   1.349       .  A
N481       Cu489   2.091       .  S
N482        C483   1.343       .  A
N482       Cu488   2.071       .  S
C483        C484   1.384       .  A
C483        H486   1.082       .  S
C484        C485   1.390       .  A
C484       C3009   1.487       .  S
C485        H487   1.082       .  S
Cu488       N491   2.070       .  S
Cu489       N499   2.091       .  S
Cu490       N492   2.069       .  S
Cu490       N498   2.070       .  S
N491        N492   1.319       .  A
N491        C495   1.344       .  A
N492        C493   1.343       .  A
C493        C494   1.388       .  A
C493        H496   1.081       .  S
C494        C495   1.389       .  A
C494       C2989   1.488       .  S
C495        H497   1.081       .  S
N498        N499   1.322       .  A
N498        C502   1.343       .  A
N499        C500   1.348       .  A
C500        C501   1.390       .  A
C500        H503   1.081       .  S
C501        C502   1.385       .  A
C501       C3049   1.488       .  S
C502        H504   1.082       .  S
N505        C510   1.351       .  A
N505        C509   1.355       .  A
N505        H537   1.038       .  S
N506        C513   1.353       .  A
N506        C514   1.350       .  A
N507        C512   1.357       .  A
N507        C511   1.354       .  A
N507        H538   1.035       .  S
N508        C515   1.351       .  A
N508        C516   1.353       .  A
C509        C517   1.386       .  A
C509        C525   1.412       .  A
C510        C526   1.415       .  A
C510        C518   1.388       .  A
C511        C519   1.387       .  A
C511        C528   1.420       .  A
C512        C527   1.423       .  A
C512        C520   1.388       .  A
C513        C525   1.410       .  A
C513        C521   1.384       .  A
C514        C528   1.417       .  A
C514        C522   1.389       .  A
C515        C523   1.386       .  A
C515        C526   1.414       .  A
C516        C524   1.388       .  A
C516        C527   1.418       .  A
C517        C518   1.372       .  A
C517        H529   1.082       .  S
C518        H530   1.082       .  S
C519        C520   1.377       .  A
C519        H531   1.082       .  S
C520        H532   1.082       .  S
C521        C522   1.371       .  A
C521        H533   1.082       .  S
C522        H534   1.082       .  S
C523        C524   1.370       .  A
C523        H535   1.082       .  S
C524        H536   1.081       .  S
C525       C2929   1.487       .  S
C526       C2976   1.482       .  S
C527       C2956   1.496       .  S
C528       C2909   1.485       .  S
N539        N540   1.319       .  A
N539        C543   1.344       .  A
N539       Cu547   2.075       .  S
N540        C541   1.345       .  A
N540       Cu546   2.074       .  S
C541        C542   1.391       .  A
C541        H544   1.081       .  S
C542        C543   1.390       .  A
C542       C2869   1.493       .  S
C543        H545   1.080       .  S
Cu546       N549   2.073       .  S
Cu547       N557   2.075       .  S
Cu548       N550   2.072       .  S
Cu548       N556   2.072       .  S
N549        N550   1.323       .  A
N549        C553   1.342       .  A
N550        C551   1.347       .  A
C551        C552   1.383       .  A
C551        H554   1.082       .  S
C552        C553   1.381       .  A
C552       C2969   1.472       .  S
C553        H555   1.082       .  S
N556        N557   1.322       .  A
N556        C560   1.346       .  A
N557        C558   1.343       .  A
C558        C559   1.386   1_556  A
C558        H561   1.081       .  S
C559        C560   1.387   1_554  A
C559       C2896   1.484       .  S
C560        H562   1.081       .  S
N563        N564   1.322       .  A
N563        C567   1.347       .  A
N563       Cu571   2.082       .  S
N564        C565   1.344       .  A
N564       Cu570   2.074       .  S
C565        C566   1.384       .  A
C565        H568   1.082       .  S
C566        C567   1.386       .  A
C566       C3129   1.480       .  S
C567        H569   1.082       .  S
Cu570       N573   2.074       .  S
Cu571       N581   2.083   1_545  S
Cu572       N574   2.078       .  S
Cu572       N580   2.078   1_545  S
N573        N574   1.321       .  A
N573        C577   1.345       .  A
N574        C575   1.347       .  A
C575        C576   1.386       .  A
C575        H578   1.082       .  S
C576        C577   1.384       .  A
C576       C2949   1.481       .  S
C577        H579   1.082       .  S
N580        N581   1.323       .  A
N580        C584   1.344       .  A
N581        C582   1.348       .  A
C582        C583   1.386       .  A
C582        H585   1.082       .  S
C583        C584   1.384       .  A
C583       C2849   1.481       .  S
C584        H586   1.082       .  S
N587        N588   1.323       .  A
N587        C591   1.348       .  A
N587       Cu595   2.087       .  S
N588        C589   1.343       .  A
N588       Cu594   2.073       .  S
C589        C590   1.384       .  A
C589        H592   1.082       .  S
C590        C591   1.389       .  A
C590       C3176   1.486       .  S
C591        H593   1.082       .  S
Cu594       N597   2.073       .  S
Cu595       N605   2.087       .  S
Cu596       N598   2.077       .  S
Cu596       N604   2.077       .  S
N597        N598   1.320       .  A
N597        C601   1.345       .  A
N598        C599   1.346       .  A
C599        C600   1.389       .  A
C599        H602   1.082       .  S
C600        C601   1.388       .  A
C600       C2836   1.488       .  S
C601        H603   1.081       .  S
N604        N605   1.323       .  A
N604        C608   1.343       .  A
N605        C606   1.349       .  A
C606        C607   1.388       .  A
C606        H609   1.082       .  S
C607        C608   1.384       .  A
C607       C2816   1.484       .  S
C608        H610   1.082       .  S
N611        N612   1.323       .  A
N611        C615   1.348       .  A
N611       Cu619   2.082       .  S
N612        C613   1.343       .  A
N612       Cu618   2.076       .  S
C613        C614   1.385       .  A
C613        H616   1.082       .  S
C614        C615   1.387       .  A
C614       C2856   1.484       .  S
C615        H617   1.082       .  S
Cu618       N621   2.075       .  S
Cu619       N629   2.082       .  S
Cu620       N622   2.068       .  S
Cu620       N628   2.069       .  S
N621        N622   1.320       .  A
N621        C625   1.346       .  A
N622        C623   1.343       .  A
C623        C624   1.386       .  A
C623        H626   1.081       .  S
C624        C625   1.389       .  A
C624       C2789   1.486       .  S
C625        H627   1.081       .  S
N628        N629   1.320       .  A
N628        C632   1.343       .  A
N629        C630   1.346       .  A
C630        C631   1.393       .  A
C630        H633   1.080       .  S
C631        C632   1.390       .  A
C631       C2809   1.496       .  S
C632        H634   1.080       .  S
N635        C640   1.352       .  A
N635        C639   1.353       .  A
N635        H667   1.048       .  S
N636        C643   1.353       .  A
N636        C644   1.352       .  A
N637        C642   1.354       .  A
N637        C641   1.354       .  A
N637        H668   1.046       .  S
N638        C645   1.352       .  A
N638        C646   1.353       .  A
C639        C647   1.388       .  A
C639        C655   1.416       .  A
C640        C656   1.413       .  A
C640        C648   1.387       .  A
C641        C649   1.388       .  A
C641        C658   1.421       .  A
C642        C657   1.420       .  A
C642        C650   1.387       .  A
C643        C655   1.415       .  A
C643        C651   1.385       .  A
C644        C658   1.417       .  A
C644        C652   1.388       .  A
C645        C653   1.386       .  A
C645        C656   1.413       .  A
C646        C654   1.387       .  A
C646        C657   1.417       .  A
C647        C648   1.375       .  A
C647        H659   1.082       .  S
C648        H660   1.082       .  S
C649        C650   1.378       .  A
C649        H661   1.082       .  S
C650        H662   1.082       .  S
C651        C652   1.371       .  A
C651        H663   1.082       .  S
C652        H664   1.082       .  S
C653        C654   1.371       .  A
C653        H665   1.082       .  S
C654        H666   1.082       .  S
C655       C2876   1.491       .  S
C656       C2769   1.484       .  S
C657       C2749   1.493       .  S
C658       C3036   1.491       .  S
N669        N670   1.320       .  A
N669        C673   1.346       .  A
N669       Cu677   2.070       .  S
N670        C671   1.342       .  A
N670       Cu676   2.066       .  S
C671        C672   1.384       .  A
C671        H674   1.082       .  S
C672        C673   1.386       .  A
C672       C2776   1.480       .  S
C673        H675   1.082       .  S
Cu676       N679   2.067       .  S
Cu677       N687   2.070       .  S
Cu678       N680   2.096       .  S
Cu678       N686   2.097       .  S
N679        N680   1.322       .  A
N679        C683   1.344       .  A
N680        C681   1.350       .  A
C681        C682   1.390       .  A
C681        H684   1.082       .  S
C682        C683   1.383       .  A
C682       C2716   1.485       .  S
C683        H685   1.082       .  S
N686        N687   1.324       .  A
N686        C690   1.350   1_556  A
N687        C688   1.343   1_556  A
C688        C689   1.381       .  A
C688        H691   1.082       .  S
C689        C690   1.389       .  A
C689       C2729   1.482       .  S
C690        H692   1.082       .  S
N693        C698   1.353       .  A
N693        C697   1.353       .  A
N693        H725   1.040       .  S
N694        C701   1.354       .  A
N694        C702   1.352       .  A
N695        C700   1.356       .  A
N695        C699   1.356       .  A
N695        H726   1.042       .  S
N696        C703   1.350       .  A
N696        C704   1.349       .  A
C697        C705   1.386       .  A
C697        C713   1.413       .  A
C698        C714   1.416       .  A
C698        C706   1.388       .  A
C699        C707   1.385       .  A
C699        C716   1.418       .  A
C700        C715   1.414       .  A
C700        C708   1.385       .  A
C701        C713   1.411       .  A
C701        C709   1.384       .  A
C702        C716   1.419       .  A
C702        C710   1.387       .  A
C703        C711   1.387       .  A
C703        C714   1.413       .  A
C704        C712   1.387       .  A
C704        C715   1.410       .  A
C705        C706   1.375       .  A
C705        H717   1.082       .  S
C706        H718   1.082       .  S
C707        C708   1.374       .  A
C707        H719   1.082       .  S
C708        H720   1.082       .  S
C709        C710   1.373       .  A
C709        H721   1.082       .  S
C710        H722   1.082       .  S
C711        C712   1.369       .  A
C711        H723   1.082       .  S
C712        H724   1.082       .  S
C713       C2709   1.489       .  S
C714       C2689   1.485       .  S
C715       C3076   1.484       .  S
C716       C2829   1.537       .  S
N727        N728   1.319       .  A
N727        C731   1.347       .  A
N727       Cu735   2.076       .  S
N728        C729   1.341       .  A
N728       Cu734   2.054       .  S
C729        C730   1.382       .  A
C729        H732   1.082       .  S
C730        C731   1.389       .  A
C730       C2936   1.479       .  S
C731        H733   1.082       .  S
Cu734       N737   2.053       .  S
Cu735       N745   2.077       .  S
Cu736       N738   2.078       .  S
Cu736       N744   2.080       .  S
N737        N738   1.321       .  A
N737        C741   1.340       .  A
N738        C739   1.347       .  A
C739        C740   1.387       .  A
C739        H742   1.082       .  S
C740        C741   1.379       .  A
C740       C2696   1.475       .  S
C741        H743   1.082       .  S
N744        N745   1.324       .  A
N744        C748   1.345       .  A
N745        C746   1.343       .  A
C746        C747   1.383   1_556  A
C746        H749   1.082       .  S
C747        C748   1.385   1_554  A
C747       C2669   1.480       .  S
C748        H750   1.082       .  S
N751        N752   1.321       .  A
N751        C755   1.346       .  A
N751       Cu759   2.080       .  S
N752        C753   1.343       .  A
N752       Cu758   2.073       .  S
C753        C754   1.387   1_655  A
C753        H756   1.081       .  S
C754        C755   1.390   1_455  A
C754       C2649   1.489       .  S
C755        H757   1.081       .  S
Cu758       N761   2.073       .  S
Cu759       N769   2.080       .  S
Cu760       N762   2.072       .  S
Cu760       N768   2.072       .  S
N761        N762   1.320       .  A
N761        C765   1.346       .  A
N762        C763   1.344       .  A
C763        C764   1.387       .  A
C763        H766   1.082       .  S
C764        C765   1.387       .  A
C764       C2756   1.486       .  S
C765        H767   1.082       .  S
N768        N769   1.322       .  A
N768        C772   1.343       .  A
N769        C770   1.346       .  A
C770        C771   1.387       .  A
C770        H773   1.082       .  S
C771        C772   1.384       .  A
C771       C3196   1.483       .  S
C772        H774   1.082       .  S
N775        N776   1.322       .  A
N775        C779   1.345   1_545  A
N775       Cu783   2.061       .  S
N776        C777   1.341   1_545  A
N776       Cu782   2.068       .  S
C777        C778   1.381       .  A
C777        H780   1.082       .  S
C778        C779   1.381       .  A
C778       C2629   1.469       .  S
C779        H781   1.082       .  S
Cu782       N785   2.068       .  S
Cu783       N793   2.062       .  S
Cu784       N786   2.075       .  S
Cu784       N792   2.075       .  S
N785        N786   1.320       .  A
N785        C789   1.344       .  A
N786        C787   1.346       .  A
C787        C788   1.388       .  A
C787        H790   1.082       .  S
C788        C789   1.386       .  A
C788       C2916   1.484       .  S
C789        H791   1.082       .  S
N792        N793   1.323       .  A
N792        C796   1.344       .  A
N793        C794   1.343       .  A
C794        C795   1.380       .  A
C794        H797   1.082       .  S
C795        C796   1.382       .  A
C795       C3089   1.470       .  S
C796        H798   1.082       .  S
N799        N800   1.319       .  A
N799        C803   1.346       .  A
N799       Cu807   2.064       .  S
N800        C801   1.339       .  A
N800       Cu806   2.059       .  S
C801        C802   1.386       .  A
C801        H804   1.081       .  S
C802        C803   1.389       .  A
C802       C2636   1.484       .  S
C803        H805   1.081       .  S
Cu806       N809   2.059       .  S
Cu807       N817   2.065       .  S
Cu808       N810   2.095       .  S
Cu808       N816   2.096       .  S
N809        N810   1.321       .  A
N809        C813   1.342       .  A
N810        C811   1.349       .  A
C811        C812   1.392       .  A
C811        H814   1.082       .  S
C812        C813   1.383       .  A
C812       C2616   1.487       .  S
C813        H815   1.082       .  S
N816        N817   1.324       .  A
N816        C820   1.345       .  A
N817        C818   1.345       .  A
C818        C819   1.382       .  A
C818        H821   1.082       .  S
C819        C820   1.388       .  A
C819       C2656   1.482       .  S
C820        H822   1.082       .  S
N823        N824   1.322   1_455  A
N823        C827   1.348   1_455  A
N823       Cu831   2.092       .  S
N824        C825   1.341       .  A
N824       Cu830   2.065   1_655  S
C825        C826   1.385       .  A
C825        H828   1.081       .  S
C826        C827   1.391       .  A
C826       C2569   1.488       .  S
C827        H829   1.081       .  S
Cu830       N833   2.065       .  S
Cu831       N841   2.093       .  S
Cu832       N834   2.073       .  S
Cu832       N840   2.074       .  S
N833        N834   1.319       .  A
N833        C837   1.343       .  A
N834        C835   1.345       .  A
C835        C836   1.388       .  A
C835        H838   1.081       .  S
C836        C837   1.387       .  A
C836       C2589   1.485       .  S
C837        H839   1.082       .  S
N840        N841   1.323       .  A
N840        C844   1.344       .  A
N841        C842   1.349       .  A
C842        C843   1.390       .  A
C842        H845   1.082       .  S
C843        C844   1.383       .  A
C843       C2556   1.486       .  S
C844        H846   1.082       .  S
N847        N848   1.321       .  A
N847        C851   1.345       .  A
N847       Cu855   2.085       .  S
N848        C849   1.343       .  A
N848       Cu854   2.063       .  S
C849        C850   1.385   1_565  A
C849        H852   1.081   1_565  S
C850        C851   1.389   1_545  A
C850       C2516   1.486       .  S
C851        H853   1.081   1_565  S
Cu854       N857   2.064       .  S
Cu855       N865   2.086       .  S
Cu856       N858   2.059       .  S
Cu856       N864   2.060       .  S
N857        N858   1.320       .  A
N857        C861   1.342       .  A
N858        C859   1.343       .  A
C859        C860   1.384       .  A
C859        H862   1.081       .  S
C860        C861   1.385       .  A
C860       C2529   1.478       .  S
C861        H863   1.082       .  S
N864        N865   1.322       .  A
N864        C868   1.343       .  A
N865        C866   1.347       .  A
C866        C867   1.387       .  A
C866        H869   1.082       .  S
C867        C868   1.381       .  A
C867       C2489   1.477       .  S
C868        H870   1.082       .  S
N871        N872   1.322       .  A
N871        C875   1.346       .  A
N871       Cu879   2.077       .  S
N872        C873   1.339       .  A
N872       Cu878   2.053       .  S
C873        C874   1.381       .  A
C873        H876   1.081       .  S
C874        C875   1.388       .  A
C874       C2576   1.479       .  S
C875        H877   1.081       .  S
Cu878       N881   2.052       .  S
Cu879       N889   2.077       .  S
Cu880       N882   2.063       .  S
Cu880       N888   2.063       .  S
N881        N882   1.317       .  A
N881        C885   1.341       .  A
N882        C883   1.343       .  A
C883        C884   1.389       .  A
C883        H886   1.081       .  S
C884        C885   1.386       .  A
C884       C3336   1.483       .  S
C885        H887   1.081       .  S
N888        N889   1.322       .  A
N888        C892   1.339       .  A
N889        C890   1.348       .  A
C890        C891   1.387       .  A
C890        H893   1.082       .  S
C891        C892   1.381       .  A
C891       C2509   1.477       .  S
C892        H894   1.082       .  S
N895        N896   1.323       .  A
N895        C899   1.346       .  A
N895       Cu903   2.077       .  S
N896        C897   1.343       .  A
N896       Cu902   2.076       .  S
C897        C898   1.384       .  A
C897        H900   1.082       .  S
C898        C899   1.384       .  A
C898       C2429   1.479       .  S
C899        H901   1.082       .  S
Cu902       N905   2.075       .  S
Cu903       N913   2.077       .  S
Cu904       N906   2.068       .  S
Cu904       N912   2.068       .  S
N905        N906   1.320       .  A
N905        C909   1.345       .  A
N906        C907   1.344       .  A
C907        C908   1.385       .  A
C907        H910   1.082       .  S
C908        C909   1.387       .  A
C908       C2469   1.482       .  S
C909        H911   1.082       .  S
N912        N913   1.322       .  A
N912        C916   1.342       .  A
N913        C914   1.348       .  A
C914        C915   1.387       .  A
C914        H917   1.082       .  S
C915        C916   1.383       .  A
C915       C2456   1.480       .  S
C916        H918   1.082       .  S
N919        N920   1.321       .  A
N919        C923   1.348   1_565  A
N919       Cu927   2.089       .  S
N920        C921   1.346   1_565  A
N920       Cu926   2.077       .  S
C921        C922   1.387       .  A
C921        H924   1.082       .  S
C922        C923   1.389       .  A
C922       C2389   1.489       .  S
C923        H925   1.082       .  S
Cu926       N929   2.077       .  S
Cu927       N937   2.089       .  S
Cu928       N930   2.077       .  S
Cu928       N936   2.077       .  S
N929        N930   1.321       .  A
N929        C933   1.343       .  A
N930        C931   1.347       .  A
C931        C932   1.389       .  A
C931        H934   1.081       .  S
C932        C933   1.387       .  A
C932       C2409   1.489       .  S
C933        H935   1.081       .  S
N936        N937   1.323       .  A
N936        C940   1.345       .  A
N937        C938   1.347       .  A
C938        C939   1.386       .  A
C938        H941   1.082       .  S
C939        C940   1.385       .  A
C939       C2369   1.484       .  S
C940        H942   1.082       .  S
N943        N944   1.324       .  A
N943        C947   1.348       .  A
N943       Cu951   2.091       .  S
N944        C945   1.345       .  A
N944       Cu950   2.081       .  S
C945        C946   1.385       .  A
C945        H948   1.082       .  S
C946        C947   1.388       .  A
C946       C2396   1.487       .  S
C947        H949   1.082       .  S
Cu950       N953   2.080       .  S
Cu951       N961   2.091       .  S
Cu952       N954   2.070       .  S
Cu952       N960   2.070       .  S
N953        N954   1.319       .  A
N953        C957   1.345       .  A
N954        C955   1.345       .  A
C955        C956   1.389       .  A
C955        H958   1.081       .  S
C956        C957   1.391       .  A
C956       C3456   1.492       .  S
C957        H959   1.081       .  S
N960        N961   1.322       .  A
N960        C964   1.343       .  A
N961        C962   1.349       .  A
C962        C963   1.392       .  A
C962        H965   1.081       .  S
C963        C964   1.386       .  A
C963       C2449   1.490       .  S
C964        H966   1.081       .  S
N967        C972   1.353       .  A
N967        C971   1.355       .  A
N967        H999   1.039       .  S
N968        C975   1.353       .  A
N968        C976   1.351       .  A
N969        C974   1.355       .  A
N969        C973   1.352       .  A
N969       H1000   1.039       .  S
N970        C977   1.352       .  A
N970        C978   1.353       .  A
C971        C979   1.387       .  A
C971        C987   1.414       .  A
C972        C988   1.416       .  A
C972        C980   1.388       .  A
C973        C981   1.387       .  A
C973        C990   1.414       .  A
C974        C989   1.416       .  A
C974        C982   1.387       .  A
C975        C987   1.412       .  A
C975        C983   1.385       .  A
C976        C990   1.415       .  A
C976        C984   1.388       .  A
C977        C985   1.386       .  A
C977        C988   1.414       .  A
C978        C986   1.386       .  A
C978        C989   1.416       .  A
C979        C980   1.370       .  A
C979        H991   1.082       .  S
C980        H992   1.082       .  S
C981        C982   1.375       .  A
C981        H993   1.082       .  S
C982        H994   1.082       .  S
C983        C984   1.374       .  A
C983        H995   1.082       .  S
C984        H996   1.082       .  S
C985        C986   1.374       .  A
C985        H997   1.082       .  S
C986        H998   1.082       .  S
C987       C2336   1.487       .  S
C988       C2349   1.487       .  S
C989       C2416   1.493       .  S
C990       C2536   1.484       .  S
N1001      N1002   1.322       .  A
N1001      C1005   1.347       .  A
N1001     Cu1009   2.072       .  S
N1002      C1003   1.340       .  A
N1002     Cu1008   2.061       .  S
C1003      C1004   1.379       .  A
C1003      H1006   1.082       .  S
C1004      C1005   1.384       .  A
C1004      C2329   1.471       .  S
C1005      H1007   1.082       .  S
Cu1008     N1011   2.060       .  S
Cu1009     N1019   2.072       .  S
Cu1010     N1012   2.066       .  S
Cu1010     N1018   2.068       .  S
N1011      N1012   1.320       .  A
N1011      C1015   1.342       .  A
N1012      C1013   1.346       .  A
C1013      C1014   1.383       .  A
C1013      H1016   1.082       .  S
C1014      C1015   1.380       .  A
C1014      C2309   1.468       .  S
C1015      H1017   1.082       .  S
N1018      N1019   1.323       .  A
N1018      C1022   1.342       .  A
N1019      C1020   1.344       .  A
C1020      C1021   1.384       .  A
C1020      H1023   1.082       .  S
C1021      C1022   1.382       .  A
C1021      C3209   1.476       .  S
C1022      H1024   1.082       .  S
N1025      C1030   1.353       .  A
N1025      C1029   1.352       .  A
N1025      H1057   1.039       .  S
N1026      C1033   1.351       .  A
N1026      C1034   1.351       .  A
N1027      C1032   1.354       .  A
N1027      C1031   1.355       .  A
N1027      H1058   1.039       .  S
N1028      C1035   1.353       .  A
N1028      C1036   1.351       .  A
C1029      C1037   1.388       .  A
C1029      C1045   1.415       .  A
C1030      C1046   1.414       .  A
C1030      C1038   1.387       .  A
C1031      C1039   1.387       .  A
C1031      C1048   1.417       .  A
C1032      C1047   1.416       .  A
C1032      C1040   1.387       .  A
C1033      C1045   1.411       .  A
C1033      C1041   1.386       .  A
C1034      C1048   1.414       .  A
C1034      C1042   1.387       .  A
C1035      C1043   1.385       .  A
C1035      C1046   1.412       .  A
C1036      C1044   1.388       .  A
C1036      C1047   1.416       .  A
C1037      C1038   1.373       .  A
C1037      H1049   1.082       .  S
C1038      H1050   1.082       .  S
C1039      C1040   1.377       .  A
C1039      H1051   1.082       .  S
C1040      H1052   1.082       .  S
C1041      C1042   1.370       .  A
C1041      H1053   1.082       .  S
C1042      H1054   1.082       .  S
C1043      C1044   1.372       .  A
C1043      H1055   1.082       .  S
C1044      H1056   1.082       .  S
C1045      C2269   1.481       .  S
C1046      C2289   1.489       .  S
C1047      C2596   1.490       .  S
C1048      C2249   1.491       .  S
N1059      N1060   1.321       .  A
N1059      C1063   1.347       .  A
N1059     Cu1067   2.080       .  S
N1060      C1061   1.341       .  A
N1060     Cu1066   2.063       .  S
C1061      C1062   1.385       .  A
C1061      H1064   1.081       .  S
C1062      C1063   1.389       .  A
C1062      C2356   1.485       .  S
C1063      H1065   1.081       .  S
Cu1066     N1069   2.063       .  S
Cu1067     N1077   2.080       .  S
Cu1068     N1070   2.070       .  S
Cu1068     N1076   2.071       .  S
N1069      N1070   1.321       .  A
N1069      C1073   1.343       .  A
N1070      C1071   1.344       .  A
C1071      C1072   1.383       .  A
C1071      H1074   1.082       .  S
C1072      C1073   1.383       .  A
C1072      C2276   1.474       .  S
C1073      H1075   1.082       .  S
N1076      N1077   1.322       .  A
N1076      C1080   1.344       .  A
N1077      C1078   1.346       .  A
C1078      C1079   1.387       .  A
C1078      H1081   1.081       .  S
C1079      C1080   1.386       .  A
C1079      C3529   1.485       .  S
C1080      H1082   1.082       .  S
N1083      C1088   1.352       .  A
N1083      C1087   1.354       .  A
N1083      H1115   1.038       .  S
N1084      C1091   1.353       .  A
N1084      C1092   1.351       .  A
N1085      C1090   1.354       .  A
N1085      C1089   1.352       .  A
N1085      H1116   1.036       .  S
N1086      C1093   1.350       .  A
N1086      C1094   1.351       .  A
C1087      C1095   1.385       .  A
C1087      C1103   1.414       .  A
C1088      C1104   1.415       .  A
C1088      C1096   1.388       .  A
C1089      C1097   1.388       .  A
C1089      C1106   1.417       .  A
C1090      C1105   1.416       .  A
C1090      C1098   1.386       .  A
C1091      C1103   1.413       .  A
C1091      C1099   1.385       .  A
C1092      C1106   1.416       .  A
C1092      C1100   1.388       .  A
C1093      C1101   1.387       .  A
C1093      C1104   1.411       .  A
C1094      C1102   1.386       .  A
C1094      C1105   1.412       .  A
C1095      C1096   1.373       .  A
C1095      H1107   1.082       .  S
C1096      H1108   1.082       .  S
C1097      C1098   1.377       .  A
C1097      H1109   1.082       .  S
C1098      H1110   1.082       .  S
C1099      C1100   1.372       .  A
C1099      H1111   1.082       .  S
C1100      H1112   1.082       .  S
C1101      C1102   1.370       .  A
C1101      H1113   1.082       .  S
C1102      H1114   1.082       .  S
C1103      C2236   1.490       .  S
C1104      C2316   1.479       .  S
C1105      C2216   1.487       .  S
C1106      C2476   1.483       .  S
N1117      N1118   1.319       .  A
N1117      C1121   1.347       .  A
N1117     Cu1125   2.075       .  S
N1118      C1119   1.341       .  A
N1118     Cu1124   2.055       .  S
C1119      C1120   1.382       .  A
C1119      H1122   1.082       .  S
C1120      C1121   1.388       .  A
C1120      C2296   1.478       .  S
C1121      H1123   1.082       .  S
Cu1124     N1127   2.056       .  S
Cu1125     N1135   2.077       .  S
Cu1126     N1128   2.110       .  S
Cu1126     N1134   2.111       .  S
N1127      N1128   1.321       .  A
N1127      C1131   1.340       .  A
N1128      C1129   1.353       .  A
C1129      C1130   1.396       .  A
C1129      H1132   1.082       .  S
C1130      C1131   1.382       .  A
C1130      C2229   1.491       .  S
C1131      H1133   1.082       .  S
N1134      N1135   1.325       .  A
N1134      C1138   1.351       .  A
N1135      C1136   1.344       .  A
C1136      C1137   1.383       .  A
C1136      H1139   1.082       .  S
C1137      C1138   1.391       .  A
C1137      C3669   1.489       .  S
C1138      H1140   1.082       .  S
N1141      N1142   1.321       .  A
N1141      C1145   1.346       .  A
N1141     Cu1149   2.082       .  S
N1142      C1143   1.343       .  A
N1142     Cu1148   2.069       .  S
C1143      C1144   1.386       .  A
C1143      H1146   1.081       .  S
C1144      C1145   1.389       .  A
C1144      C2169   1.487       .  S
C1145      H1147   1.081       .  S
Cu1148     N1151   2.068       .  S
Cu1149     N1159   2.081       .  S
Cu1150     N1152   2.067       .  S
Cu1150     N1158   2.066       .  S
N1151      N1152   1.320       .  A
N1151      C1155   1.344       .  A
N1152      C1153   1.344       .  A
C1153      C1154   1.385       .  A
C1153      H1156   1.082       .  S
C1154      C1155   1.385       .  A
C1154      C2209   1.478       .  S
C1155      H1157   1.082       .  S
N1158      N1159   1.323       .  A
N1158      C1162   1.343       .  A
N1159      C1160   1.346       .  A
C1160      C1161   1.384       .  A
C1160      H1163   1.082       .  S
C1161      C1162   1.379       .  A
C1161      C2196   1.472       .  S
C1162      H1164   1.082       .  S
N1165      N1166   1.322       .  A
N1165      C1169   1.349       .  A
N1165     Cu1173   2.091   1_655  S
N1166      C1167   1.343       .  A
N1166     Cu1172   2.067   1_655  S
C1167      C1168   1.382       .  A
C1167      H1170   1.082       .  S
C1168      C1169   1.389       .  A
C1168      C2149   1.482       .  S
C1169      H1171   1.082       .  S
Cu1172     N1175   2.066       .  S
Cu1173     N1183   2.091       .  S
Cu1174     N1176   2.077       .  S
Cu1174     N1182   2.078       .  S
N1175      N1176   1.320       .  A
N1175      C1179   1.342       .  A
N1176      C1177   1.347       .  A
C1177      C1178   1.390       .  A
C1177      H1180   1.081       .  S
C1178      C1179   1.386       .  A
C1178      C2256   1.487       .  S
C1179      H1181   1.081       .  S
N1182      N1183   1.323       .  A
N1182      C1186   1.343       .  A
N1183      C1184   1.348       .  A
C1184      C1185   1.389       .  A
C1184      H1187   1.081       .  S
C1185      C1186   1.386       .  A
C1185      C2136   1.488       .  S
C1186      H1188   1.081       .  S
N1189      N1190   1.322       .  A
N1189      C1193   1.347       .  A
N1189     Cu1197   2.074       .  S
N1190      C1191   1.345       .  A
N1190     Cu1196   2.085       .  S
C1191      C1192   1.388       .  A
C1191      H1194   1.082       .  S
C1192      C1193   1.386       .  A
C1192      C2156   1.486       .  S
C1193      H1195   1.082       .  S
Cu1196     N1199   2.084       .  S
Cu1197     N1207   2.074       .  S
Cu1198     N1200   2.063       .  S
Cu1198     N1206   2.063       .  S
N1199      N1200   1.320       .  A
N1199      C1203   1.345       .  A
N1200      C1201   1.346       .  A
C1201      C1202   1.386       .  A
C1201      H1204   1.082       .  S
C1202      C1203   1.389       .  A
C1202      C3376   1.486       .  S
C1203      H1205   1.081       .  S
N1206      N1207   1.322       .  A
N1206      C1210   1.340       .  A
N1207      C1208   1.346       .  A
C1208      C1209   1.387       .  A
C1208      H1211   1.081       .  S
C1209      C1210   1.383       .  A
C1209      C2189   1.480       .  S
C1210      H1212   1.081       .  S
O1213     Cu1221   2.009       .  S
O1213      C1223   1.278       .  A
O1214     Cu1221   2.015       .  S
O1214      C1224   1.279       .  A
O1215     Cu1221   2.002       .  S
O1215      C1225   1.277       .  A
O1216     Cu1221   2.007       .  S
O1216      C1226   1.277       .  A
O1217     Cu1222   2.031       .  S
O1217      C1226   1.281       .  A
O1218     Cu1222   2.024       .  S
O1218      C1225   1.280       .  A
O1219     Cu1222   2.024       .  S
O1219      C1224   1.280       .  A
O1220     Cu1222   2.016       .  S
O1220      C1223   1.279       .  A
Cu1221    Cu1222   2.364       .  S
C1223      C2436   1.489       .  S
C1224      C2089   1.493       .  S
C1225      C2116   1.493       .  S
C1226      C2549   1.494       .  S
O1227     Cu1235   2.015       .  S
O1227      C1237   1.279       .  A
O1228     Cu1235   2.022       .  S
O1228      C1238   1.279       .  A
O1229     Cu1235   2.002       .  S
O1229      C1239   1.277       .  A
O1230     Cu1235   1.992       .  S
O1230      C1240   1.276       .  A
O1231     Cu1236   2.013       .  S
O1231      C1240   1.278       .  A
O1232     Cu1236   2.008       .  S
O1232      C1239   1.278       .  A
O1233     Cu1236   1.993       .  S
O1233      C1238   1.276       .  A
O1234     Cu1236   2.000       .  S
O1234      C1237   1.277       .  A
Cu1235    Cu1236   2.369       .  S
C1237      C2056   1.486       .  S
C1238      C2496   1.479       .  S
C1239      C2176   1.477       .  S
C1240      C2069   1.485       .  S
N1241      N1242   1.322       .  A
N1241      C1245   1.348   1_455  A
N1241     Cu1249   2.091       .  S
N1242      C1243   1.344   1_455  A
N1242     Cu1248   2.071       .  S
C1243      C1244   1.385       .  A
C1243      H1246   1.082       .  S
C1244      C1245   1.389       .  A
C1244      C2016   1.487       .  S
C1245      H1247   1.082       .  S
Cu1248     N1251   2.071       .  S
Cu1249     N1259   2.092       .  S
Cu1250     N1252   2.078       .  S
Cu1250     N1258   2.079       .  S
N1251      N1252   1.321       .  A
N1251      C1255   1.344       .  A
N1252      C1253   1.345       .  A
C1253      C1254   1.388       .  A
C1253      H1256   1.081       .  S
C1254      C1255   1.388       .  A
C1254      C2036   1.488       .  S
C1255      H1257   1.081       .  S
N1258      N1259   1.323       .  A
N1258      C1262   1.346       .  A
N1259      C1260   1.349       .  A
C1260      C1261   1.387       .  A
C1260      H1263   1.082       .  S
C1261      C1262   1.385       .  A
C1261      C2096   1.485       .  S
C1262      H1264   1.082       .  S
N1265      N1266   1.323       .  A
N1265      C1269   1.346   1_565  A
N1265     Cu1273   2.078       .  S
N1266      C1267   1.347   1_565  A
N1266     Cu1272   2.087       .  S
C1267      C1268   1.388       .  A
C1267      H1270   1.082       .  S
C1268      C1269   1.386       .  A
C1268      C1976   1.486       .  S
C1269      H1271   1.082       .  S
Cu1272     N1275   2.087       .  S
Cu1273     N1283   2.077       .  S
Cu1274     N1276   2.062       .  S
Cu1274     N1282   2.061       .  S
N1275      N1276   1.321       .  A
N1275      C1279   1.346       .  A
N1276      C1277   1.345       .  A
C1277      C1278   1.385       .  A
C1277      H1280   1.082       .  S
C1278      C1279   1.389       .  A
C1278      C1989   1.486       .  S
C1279      H1281   1.081       .  S
N1282      N1283   1.321       .  A
N1282      C1286   1.341       .  A
N1283      C1284   1.346       .  A
C1284      C1285   1.387       .  A
C1284      H1287   1.081       .  S
C1285      C1286   1.383       .  A
C1285      C2076   1.480       .  S
C1286      H1288   1.082       .  S
N1289      N1290   1.322       .  A
N1289      C1293   1.347       .  A
N1289     Cu1297   2.080       .  S
N1290      C1291   1.344       .  A
N1290     Cu1296   2.074       .  S
C1291      C1292   1.386       .  A
C1291      H1294   1.082       .  S
C1292      C1293   1.387       .  A
C1292      C2009   1.486       .  S
C1293      H1295   1.081       .  S
Cu1296     N1299   2.073       .  S
Cu1297     N1307   2.081       .  S
Cu1298     N1300   2.078       .  S
Cu1298     N1306   2.079       .  S
N1299      N1300   1.321       .  A
N1299      C1303   1.345       .  A
N1300      C1301   1.345       .  A
C1301      C1302   1.388       .  A
C1301      H1304   1.081       .  S
C1302      C1303   1.387       .  A
C1302      C2889   1.487       .  S
C1303      H1305   1.081       .  S
N1306      N1307   1.323       .  A
N1306      C1310   1.345       .  A
N1307      C1308   1.347       .  A
C1308      C1309   1.386       .  A
C1308      H1311   1.082       .  S
C1309      C1310   1.385       .  A
C1309      C1969   1.483       .  S
C1310      H1312   1.082       .  S
N1313      N1314   1.322       .  A
N1313      C1317   1.349       .  A
N1313     Cu1321   2.089       .  S
N1314      C1315   1.340       .  A
N1314     Cu1320   2.061       .  S
C1315      C1316   1.382       .  A
C1315      H1318   1.081       .  S
C1316      C1317   1.391       .  A
C1316      C2109   1.486       .  S
C1317      H1319   1.081       .  S
Cu1320     N1323   2.060       .  S
Cu1321     N1331   2.088       .  S
Cu1322     N1324   2.049       .  S
Cu1322     N1330   2.051       .  S
N1323      N1324   1.319       .  A
N1323      C1327   1.344       .  A
N1324      C1325   1.341       .  A
C1325      C1326   1.379       .  A
C1325      H1328   1.082       .  S
C1326      C1327   1.383       .  A
C1326      C1956   1.466       .  S
C1327      H1329   1.082       .  S
N1330      N1331   1.323       .  A
N1330      C1334   1.340       .  A
N1331      C1332   1.348       .  A
C1332      C1333   1.387       .  A
C1332      H1335   1.082       .  S
C1333      C1334   1.378       .  A
C1333      C1929   1.473       .  S
C1334      H1336   1.082       .  S
N1337      N1338   1.323       .  A
N1337      C1341   1.347   1_565  A
N1337     Cu1345   2.087       .  S
N1338      C1339   1.344   1_565  A
N1338     Cu1344   2.067       .  S
C1339      C1340   1.382       .  A
C1339      H1342   1.082       .  S
C1340      C1341   1.387       .  A
C1340      C1896   1.480       .  S
C1341      H1343   1.082       .  S
Cu1344     N1347   2.067       .  S
Cu1345     N1355   2.087       .  S
Cu1346     N1348   2.072       .  S
Cu1346     N1354   2.072       .  S
N1347      N1348   1.320       .  A
N1347      C1351   1.343       .  A
N1348      C1349   1.346       .  A
C1349      C1350   1.386       .  A
C1349      H1352   1.082       .  S
C1350      C1351   1.384       .  A
C1350      C1909   1.479       .  S
C1351      H1353   1.082       .  S
N1354      N1355   1.323       .  A
N1354      C1358   1.343       .  A
N1355      C1356   1.347       .  A
C1356      C1357   1.389       .  A
C1356      H1359   1.082       .  S
C1357      C1358   1.384       .  A
C1357      C1869   1.485       .  S
C1358      H1360   1.082       .  S
N1361      N1362   1.321       .  A
N1361      C1365   1.347       .  A
N1361     Cu1369   2.082       .  S
N1362      C1363   1.344       .  A
N1362     Cu1368   2.073       .  S
C1363      C1364   1.388       .  A
C1363      H1366   1.081       .  S
C1364      C1365   1.391       .  A
C1364      C1889   1.493       .  S
C1365      H1367   1.081       .  S
Cu1368     N1371   2.072       .  S
Cu1369     N1379   2.082       .  S
Cu1370     N1372   2.065       .  S
Cu1370     N1378   2.066       .  S
N1371      N1372   1.320       .  A
N1371      C1375   1.344       .  A
N1372      C1373   1.344       .  A
C1373      C1374   1.385       .  A
C1373      H1376   1.082       .  S
C1374      C1375   1.386       .  A
C1374      C2676   1.481       .  S
C1375      H1377   1.081       .  S
N1378      N1379   1.322       .  A
N1378      C1382   1.342       .  A
N1379      C1380   1.346       .  A
C1380      C1381   1.387       .  A
C1380      H1383   1.082       .  S
C1381      C1382   1.384       .  A
C1381      C1936   1.482       .  S
C1382      H1384   1.082       .  S
N1385      N1386   1.322       .  A
N1385      C1389   1.350       .  A
N1385     Cu1393   2.093       .  S
N1386      C1387   1.343       .  A
N1386     Cu1392   2.069       .  S
C1387      C1388   1.383       .  A
C1387      H1390   1.082       .  S
C1388      C1389   1.390       .  A
C1388      C1836   1.484       .  S
C1389      H1391   1.082       .  S
Cu1392     N1395   2.069       .  S
Cu1393     N1403   2.094   1_554  S
Cu1394     N1396   2.083       .  S
Cu1394     N1402   2.084   1_554  S
N1395      N1396   1.321       .  A
N1395      C1399   1.343       .  A
N1396      C1397   1.349       .  A
C1397      C1398   1.388       .  A
C1397      H1400   1.082       .  S
C1398      C1399   1.383       .  A
C1398      C1849   1.481       .  S
C1399      H1401   1.082       .  S
N1402      N1403   1.325       .  A
N1402      C1406   1.345       .  A
N1403      C1404   1.349       .  A
C1404      C1405   1.387       .  A
C1404      H1407   1.082       .  S
C1405      C1406   1.385       .  A
C1405      C2609   1.485       .  S
C1406      H1408   1.082       .  S
N1409      C1414   1.353       .  A
N1409      C1413   1.354       .  A
N1409      H1441   1.038       .  S
N1410      C1417   1.352       .  A
N1410      C1418   1.352       .  A
N1411      C1416   1.353       .  A
N1411      C1415   1.352       .  A
N1411      H1442   1.038       .  S
N1412      C1419   1.351       .  A
N1412      C1420   1.351       .  A
C1413      C1421   1.387       .  A
C1413      C1429   1.416       .  A
C1414      C1430   1.416       .  A
C1414      C1422   1.387       .  A
C1415      C1423   1.387       .  A
C1415      C1432   1.414       .  A
C1416      C1431   1.413       .  A
C1416      C1424   1.387       .  A
C1417      C1429   1.415       .  A
C1417      C1425   1.387       .  A
C1418      C1432   1.414       .  A
C1418      C1426   1.386       .  A
C1419      C1427   1.387       .  A
C1419      C1430   1.415       .  A
C1420      C1428   1.386       .  A
C1420      C1431   1.412       .  A
C1421      C1422   1.377       .  A
C1421      H1433   1.082       .  S
C1422      H1434   1.082       .  S
C1423      C1424   1.375       .  A
C1423      H1435   1.082       .  S
C1424      H1436   1.082       .  S
C1425      C1426   1.372       .  A
C1425      H1437   1.082       .  S
C1426      H1438   1.082       .  S
C1427      C1428   1.371       .  A
C1427      H1439   1.082       .  S
C1428      H1440   1.082       .  S
C1429      C1856   1.487       .  S
C1430      C1809   1.488       .  S
C1431      C2029   1.483       .  S
C1432      C1789   1.484       .  S
N1443      N1444   1.319       .  A
N1443      C1447   1.347       .  A
N1443     Cu1451   2.081       .  S
N1444      C1445   1.343       .  A
N1444     Cu1450   2.071       .  S
C1445      C1446   1.390       .  A
C1445      H1448   1.080       .  S
C1446      C1447   1.394       .  A
C1446      C1749   1.498       .  S
C1447      H1449   1.080       .  S
Cu1450     N1453   2.072       .  S
Cu1451     N1461   2.081   1_554  S
Cu1452     N1454   2.081       .  S
Cu1452     N1460   2.081   1_554  S
N1453      N1454   1.322       .  A
N1453      C1457   1.343       .  A
N1454      C1455   1.347       .  A
C1455      C1456   1.386       .  A
C1455      H1458   1.082       .  S
C1456      C1457   1.383       .  A
C1456      C1769   1.480       .  S
C1457      H1459   1.082       .  S
N1460      N1461   1.323       .  A
N1460      C1464   1.347       .  A
N1461      C1462   1.343       .  A
C1462      C1463   1.387       .  A
C1462      H1465   1.081       .  S
C1463      C1464   1.388       .  A
C1463      C2796   1.488       .  S
C1464      H1466   1.081       .  S
N1467      C1472   1.353       .  A
N1467      C1471   1.355       .  A
N1467      H1499   1.037       .  S
N1468      C1475   1.355       .  A
N1468      C1476   1.352       .  A
N1469      C1474   1.355       .  A
N1469      C1473   1.351       .  A
N1469      H1500   1.036       .  S
N1470      C1477   1.351       .  A
N1470      C1478   1.353       .  A
C1471      C1479   1.387       .  A
C1471      C1487   1.417       .  A
C1472      C1488   1.418       .  A
C1472      C1480   1.387       .  A
C1473      C1481   1.388       .  A
C1473      C1490   1.416       .  A
C1474      C1489   1.415       .  A
C1474      C1482   1.386       .  A
C1475      C1487   1.417       .  A
C1475      C1483   1.386       .  A
C1476      C1490   1.418       .  A
C1476      C1484   1.388       .  A
C1477      C1485   1.387       .  A
C1477      C1488   1.415       .  A
C1478      C1486   1.385       .  A
C1478      C1489   1.414       .  A
C1479      C1480   1.377       .  A
C1479      H1491   1.082       .  S
C1480      H1492   1.082       .  S
C1481      C1482   1.377       .  A
C1481      H1493   1.082       .  S
C1482      H1494   1.082       .  S
C1483      C1484   1.373       .  A
C1483      H1495   1.082       .  S
C1484      H1496   1.082       .  S
C1485      C1486   1.371       .  A
C1485      H1497   1.082       .  S
C1486      H1498   1.082       .  S
C1487      C1829   1.493       .  S
C1488      C1756   1.487       .  S
C1489      C1996   1.489       .  S
C1490      C1916   1.482       .  S
N1501      C1506   1.353       .  A
N1501      C1505   1.353       .  A
N1501      H1533   1.038       .  S
N1502      C1509   1.351       .  A
N1502      C1510   1.350       .  A
N1503      C1508   1.354       .  A
N1503      C1507   1.353       .  A
N1503      H1534   1.039       .  S
N1504      C1511   1.351       .  A
N1504      C1512   1.351       .  A
C1505      C1513   1.387       .  A
C1505      C1521   1.414       .  A
C1506      C1522   1.415       .  A
C1506      C1514   1.388       .  A
C1507      C1515   1.387       .  A
C1507      C1524   1.413       .  A
C1508      C1523   1.415       .  A
C1508      C1516   1.387       .  A
C1509      C1521   1.412       .  A
C1509      C1517   1.386       .  A
C1510      C1524   1.412       .  A
C1510      C1518   1.387       .  A
C1511      C1519   1.386       .  A
C1511      C1522   1.412       .  A
C1512      C1520   1.386       .  A
C1512      C1523   1.413       .  A
C1513      C1514   1.372       .  A
C1513      H1525   1.082       .  S
C1514      H1526   1.082       .  S
C1515      C1516   1.374       .  A
C1515      H1527   1.082       .  S
C1516      H1528   1.082       .  S
C1517      C1518   1.373       .  A
C1517      H1529   1.082       .  S
C1518      H1530   1.082       .  S
C1519      C1520   1.374       .  A
C1519      H1531   1.082       .  S
C1520      H1532   1.082       .  S
C1521      C1729   1.486       .  S
C1522      C1776   1.483       .  S
C1523      C1709   1.487       .  S
C1524      C1949   1.479       .  S
N1535      N1536   1.318       .  A
N1535      C1539   1.345       .  A
N1535     Cu1543   2.060       .  S
N1536      C1537   1.339       .  A
N1536     Cu1542   2.053       .  S
C1537      C1538   1.384       .  A
C1537      H1540   1.081       .  S
C1538      C1539   1.387       .  A
C1538      C1816   1.478       .  S
C1539      H1541   1.082       .  S
Cu1542     N1545   2.054       .  S
Cu1543     N1553   2.062   1_554  S
Cu1544     N1546   2.090       .  S
Cu1544     N1552   2.092   1_554  S
N1545      N1546   1.321       .  A
N1545      C1549   1.340       .  A
N1546      C1547   1.350       .  A
C1547      C1548   1.390       .  A
C1547      H1550   1.082       .  S
C1548      C1549   1.381       .  A
C1548      C1736   1.481       .  S
C1549      H1551   1.082       .  S
N1552      N1553   1.323       .  A
N1552      C1556   1.347       .  A
N1553      C1554   1.341       .  A
C1554      C1555   1.382       .  A
C1554      H1557   1.081       .  S
C1555      C1556   1.389       .  A
C1555      C2996   1.483       .  S
C1556      H1558   1.081       .  S
N1559      N1560   1.323       .  A
N1559      C1563   1.344       .  A
N1559     Cu1567   2.071       .  S
N1560      C1561   1.344       .  A
N1560     Cu1566   2.078       .  S
C1561      C1562   1.385       .  A
C1561      H1564   1.082       .  S
C1562      C1563   1.384       .  A
C1562      C2049   1.480       .  S
C1563      H1565   1.082       .  S
Cu1566     N1569   2.077       .  S
Cu1567     N1577   2.071       .  S
Cu1568     N1570   2.078       .  S
Cu1568     N1576   2.079       .  S
N1569      N1570   1.321       .  A
N1569      C1573   1.347       .  A
N1570      C1571   1.345       .  A
C1571      C1572   1.388       .  A
C1571      H1574   1.081       .  S
C1572      C1573   1.388       .  A
C1572      C1716   1.489       .  S
C1573      H1575   1.082       .  S
N1576      N1577   1.321       .  A
N1576      C1580   1.342       .  A
N1577      C1578   1.347       .  A
C1578      C1579   1.386       .  A
C1578      H1581   1.082       .  S
C1579      C1580   1.386       .  A
C1579      C1696   1.484       .  S
C1580      H1582   1.082       .  S
N1583      N1584   1.322       .  A
N1583      C1587   1.348       .  A
N1583     Cu1591   2.082   1_655  S
N1584      C1585   1.344       .  A
N1584     Cu1590   2.075   1_655  S
C1585      C1586   1.386       .  A
C1585      H1588   1.082       .  S
C1586      C1587   1.388       .  A
C1586      C1669   1.486       .  S
C1587      H1589   1.082       .  S
Cu1590     N1593   2.075       .  S
Cu1591     N1601   2.081       .  S
Cu1592     N1594   2.064       .  S
Cu1592     N1600   2.064       .  S
N1593      N1594   1.322       .  A
N1593      C1597   1.344       .  A
N1594      C1595   1.344       .  A
C1595      C1596   1.381       .  A
C1595      H1598   1.082       .  S
C1596      C1597   1.383       .  A
C1596      C1796   1.472       .  S
C1597      H1599   1.082       .  S
N1600      N1601   1.322       .  A
N1600      C1604   1.343       .  A
N1601      C1602   1.345       .  A
C1602      C1603   1.387       .  A
C1602      H1605   1.081       .  S
C1603      C1604   1.384       .  A
C1603      C1656   1.480       .  S
C1604      H1606   1.082       .  S
N1607      N1608   1.323       .  A
N1607      C1611   1.347       .  A
N1607     Cu1615   2.086       .  S
N1608      C1609   1.345       .  A
N1608     Cu1614   2.076       .  S
C1609      C1610   1.384       .  A
C1609      H1612   1.082       .  S
C1610      C1611   1.388       .  A
C1610      C1676   1.484       .  S
C1611      H1613   1.082       .  S
Cu1614     N1617   2.077       .  S
Cu1615     N1625   2.085       .  S
Cu1616     N1618   2.077       .  S
Cu1616     N1624   2.077       .  S
N1617      N1618   1.321       .  A
N1617      C1621   1.347       .  A
N1618      C1619   1.343       .  A
C1619      C1620   1.388       .  A
C1619      H1622   1.081       .  S
C1620      C1621   1.389       .  A
C1620      C2736   1.489       .  S
C1621      H1623   1.081       .  S
N1624      N1625   1.323       .  A
N1624      C1628   1.345       .  A
N1625      C1626   1.347       .  A
C1626      C1627   1.385       .  A
C1626      H1629   1.082       .  S
C1627      C1628   1.384       .  A
C1627      C1689   1.480       .  S
C1628      H1630   1.082       .  S
O1631     Cu1639   2.004       .  S
O1631      C1641   1.278       .  A
O1632     Cu1639   2.000       .  S
O1632      C1642   1.277       .  A
O1633     Cu1639   2.008       .  S
O1633      C1643   1.278       .  A
O1634     Cu1639   2.004       .  S
O1634      C1644   1.277       .  A
O1635     Cu1640   2.018       .  S
O1635      C1644   1.279       .  A
O1636     Cu1640   2.020       .  S
O1636      C1643   1.280       .  A
O1637     Cu1640   2.007       .  S
O1637      C1642   1.278       .  A
O1638     Cu1640   2.014       .  S
O1638      C1641   1.278       .  A
Cu1639    Cu1640   2.364       .  S
C1641      C2376   1.488       .  S
C1642      C1649   1.485       .  S
C1643      C1876   1.493       .  S
C1644      C2129   1.491       .  S
C1645      C1646   1.403       .  A
C1645      C1650   1.398       .  A
C1645      F1663   1.358       .  S
C1646      C1647   1.402       .  A
C1646      C1651   1.476       .  S
C1647      C1648   1.396       .  A
C1647      F1652   1.358       .  S
C1648      C1649   1.412       .  A
C1648      F1664   1.358       .  S
C1649      C1650   1.412       .  A
C1650      F1653   1.358       .  S
C1651      C1654   1.404       .  A
C1651      C1658   1.403       .  A
C1654      C1655   1.397       .  A
C1654      F1659   1.358       .  S
C1655      C1656   1.409       .  A
C1655      F1661   1.358       .  S
C1656      C1657   1.409       .  A
C1657      C1658   1.398       .  A
C1657      F1660   1.357       .  S
C1658      F1662   1.358       .  S
C1665      C1666   1.403       .  A
C1665      C1670   1.398       .  A
C1665      F1683   1.358       .  S
C1666      C1667   1.406       .  A
C1666      C1671   1.483       .  S
C1667      C1668   1.403       .  A
C1667      F1672   1.358       .  S
C1668      C1669   1.410       .  A
C1668      F1684   1.358       .  S
C1669      C1670   1.409       .  A
C1670      F1673   1.357       .  S
C1671      C1674   1.405       .  A
C1671      C1678   1.404       .  A
C1674      C1675   1.401       .  A
C1674      F1679   1.358       .  S
C1675      C1676   1.408       .  A
C1675      F1681   1.358       .  S
C1676      C1677   1.408       .  A
C1677      C1678   1.401       .  A
C1677      F1680   1.357       .  S
C1678      F1682   1.358       .  S
C1685      C1686   1.406       .  A
C1685      C1690   1.400       .  A
C1685      F1703   1.358       .  S
C1686      C1687   1.405       .  A
C1686      C1691   1.483       .  S
C1687      C1688   1.401       .  A
C1687      F1692   1.358       .  S
C1688      C1689   1.407       .  A
C1688      F1704   1.358       .  S
C1689      C1690   1.406       .  A
C1690      F1693   1.358       .  S
C1691      C1694   1.406       .  A
C1691      C1698   1.403       .  A
C1694      C1695   1.404       .  A
C1694      F1699   1.358       .  S
C1695      C1696   1.410       .  A
C1695      F1701   1.358       .  S
C1696      C1697   1.407       .  A
C1697      C1698   1.395       .  A
C1697      F1700   1.357       .  S
C1698      F1702   1.358       .  S
C1705      C1706   1.409       .  A
C1705      C1710   1.400       .  A
C1705      F1723   1.358       .  S
C1706      C1707   1.408       .  A
C1706      C1711   1.487       .  S
C1707      C1708   1.399       .  A
C1707      F1712   1.358       .  S
C1708      C1709   1.404       .  A
C1708      F1724   1.358       .  S
C1709      C1710   1.403       .  A
C1710      F1713   1.358       .  S
C1711      C1714   1.405       .  A
C1711      C1718   1.407       .  A
C1714      C1715   1.399       .  A
C1714      F1719   1.358       .  S
C1715      C1716   1.409       .  A
C1715      F1721   1.357       .  S
C1716      C1717   1.410       .  A
C1717      C1718   1.403       .  A
C1717      F1720   1.357       .  S
C1718      F1722   1.358       .  S
C1725      C1726   1.404       .  A
C1725      C1730   1.398       .  A
C1725      F1743   1.357       .  S
C1726      C1727   1.407       .  A
C1726      C1731   1.479       .  S
C1727      C1728   1.398       .  A
C1727      F1732   1.358       .  S
C1728      C1729   1.405       .  A
C1728      F1744   1.358       .  S
C1729      C1730   1.405       .  A
C1730      F1733   1.358       .  S
C1731      C1734   1.406       .  A
C1731      C1738   1.403       .  A
C1734      C1735   1.402       .  A
C1734      F1739   1.358       .  S
C1735      C1736   1.407       .  A
C1735      F1741   1.357       .  S
C1736      C1737   1.409       .  A
C1737      C1738   1.396       .  A
C1737      F1740   1.358       .  S
C1738      F1742   1.358       .  S
C1745      C1746   1.402       .  A
C1745      C1750   1.401       .  A
C1745      F1763   1.358       .  S
C1746      C1747   1.402       .  A
C1746      C1751   1.482       .  S
C1747      C1748   1.400       .  A
C1747      F1752   1.358       .  S
C1748      C1749   1.414       .  A
C1748      F1764   1.356       .  S
C1749      C1750   1.414       .  A
C1750      F1753   1.355       .  S
C1751      C1754   1.406       .  A
C1751      C1758   1.406       .  A
C1754      C1755   1.398       .  A
C1754      F1759   1.358       .  S
C1755      C1756   1.403       .  A
C1755      F1761   1.358       .  S
C1756      C1757   1.406       .  A
C1757      C1758   1.401       .  A
C1757      F1760   1.358       .  S
C1758      F1762   1.358       .  S
C1765      C1766   1.406       .  A
C1765      C1770   1.402       .  A
C1765      F1783   1.358       .  S
C1766      C1767   1.404       .  A
C1766      C1771   1.480       .  S
C1767      C1768   1.398       .  A
C1767      F1772   1.358       .  S
C1768      C1769   1.407       .  A
C1768      F1784   1.358       .  S
C1769      C1770   1.407       .  A
C1770      F1773   1.358       .  S
C1771      C1774   1.407       .  A
C1771      C1778   1.406       .  A
C1774      C1775   1.400       .  A
C1774      F1779   1.358       .  S
C1775      C1776   1.403       .  A
C1775      F1781   1.357       .  S
C1776      C1777   1.404       .  A
C1777      C1778   1.397       .  A
C1777      F1780   1.358       .  S
C1778      F1782   1.358       .  S
C1785      C1786   1.408       .  A
C1785      C1790   1.400       .  A
C1785      F1803   1.358       .  S
C1786      C1787   1.406       .  A
C1786      C1791   1.482       .  S
C1787      C1788   1.397       .  A
C1787      F1792   1.358       .  S
C1788      C1789   1.403       .  A
C1788      F1804   1.358       .  S
C1789      C1790   1.404       .  A
C1790      F1793   1.358       .  S
C1791      C1794   1.407       .  A
C1791      C1798   1.407       .  A
C1794      C1795   1.399       .  A
C1794      F1799   1.358       .  S
C1795      C1796   1.404       .  A
C1795      F1801   1.358       .  S
C1796      C1797   1.404       .  A
C1797      C1798   1.398       .  A
C1797      F1800   1.358       .  S
C1798      F1802   1.358       .  S
C1805      C1806   1.405       .  A
C1805      C1810   1.400       .  A
C1805      F1823   1.358       .  S
C1806      C1807   1.406       .  A
C1806      C1811   1.479       .  S
C1807      C1808   1.396       .  A
C1807      F1812   1.358       .  S
C1808      C1809   1.405       .  A
C1808      F1824   1.358       .  S
C1809      C1810   1.406       .  A
C1810      F1813   1.357       .  S
C1811      C1814   1.403       .  A
C1811      C1818   1.406       .  A
C1814      C1815   1.393       .  A
C1814      F1819   1.358       .  S
C1815      C1816   1.407       .  A
C1815      F1821   1.357       .  S
C1816      C1817   1.408       .  A
C1817      C1818   1.400       .  A
C1817      F1820   1.358       .  S
C1818      F1822   1.358       .  S
C1825      C1826   1.406       .  A
C1825      C1830   1.404       .  A
C1825      F1843   1.358       .  S
C1826      C1827   1.406       .  A
C1826      C1831   1.485       .  S
C1827      C1828   1.401       .  A
C1827      F1832   1.358       .  S
C1828      C1829   1.405       .  A
C1828      F1844   1.357       .  S
C1829      C1830   1.406       .  A
C1830      F1833   1.357       .  S
C1831      C1834   1.406       .  A
C1831      C1838   1.404       .  A
C1834      C1835   1.405       .  A
C1834      F1839   1.357       .  S
C1835      C1836   1.408       .  A
C1835      F1841   1.358       .  S
C1836      C1837   1.407       .  A
C1837      C1838   1.399       .  A
C1837      F1840   1.358       .  S
C1838      F1842   1.358       .  S
C1845      C1846   1.408       .  A
C1845      C1850   1.402       .  A
C1845      F1863   1.358       .  S
C1846      C1847   1.406       .  A
C1846      C1851   1.486       .  S
C1847      C1848   1.399       .  A
C1847      F1852   1.358       .  S
C1848      C1849   1.406       .  A
C1848      F1864   1.358       .  S
C1849      C1850   1.406       .  A
C1850      F1853   1.358       .  S
C1851      C1854   1.409       .  A
C1851      C1858   1.406       .  A
C1854      C1855   1.401       .  A
C1854      F1859   1.358       .  S
C1855      C1856   1.404       .  A
C1855      F1861   1.358       .  S
C1856      C1857   1.404       .  A
C1857      C1858   1.400       .  A
C1857      F1860   1.357       .  S
C1858      F1862   1.357       .  S
C1865      C1866   1.405       .  A
C1865      C1870   1.400       .  A
C1865      F1883   1.358       .  S
C1866      C1867   1.405       .  A
C1866      C1871   1.483       .  S
C1867      C1868   1.400       .  A
C1867      F1872   1.358       .  S
C1868      C1869   1.410       .  A
C1868      F1884   1.358       .  S
C1869      C1870   1.409       .  A
C1870      F1873   1.357       .  S
C1871      C1874   1.404       .  A
C1871      C1878   1.404       .  A
C1874      C1875   1.400       .  A
C1874      F1879   1.358       .  S
C1875      C1876   1.412       .  A
C1875      F1881   1.357       .  S
C1876      C1877   1.414       .  A
C1877      C1878   1.401       .  A
C1877      F1880   1.358       .  S
C1878      F1882   1.358       .  S
C1885      C1886   1.405       .  A
C1885      C1890   1.400       .  A
C1885      F1903   1.358       .  S
C1886      C1887   1.406       .  A
C1886      C1891   1.489       .  S
C1887      C1888   1.400       .  A
C1887      F1892   1.358       .  S
C1888      C1889   1.412       .  A
C1888      F1904   1.357       .  S
C1889      C1890   1.411       .  A
C1890      F1893   1.356       .  S
C1891      C1894   1.408       .  A
C1891      C1898   1.408       .  A
C1894      C1895   1.399       .  A
C1894      F1899   1.358       .  S
C1895      C1896   1.405       .  A
C1895      F1901   1.358       .  S
C1896      C1897   1.407       .  A
C1897      C1898   1.401       .  A
C1897      F1900   1.358       .  S
C1898      F1902   1.358       .  S
C1905      C1906   1.404       .  A
C1905      C1910   1.399       .  A
C1905      F1923   1.358       .  S
C1906      C1907   1.404       .  A
C1906      C1911   1.478       .  S
C1907      C1908   1.398       .  A
C1907      F1912   1.358       .  S
C1908      C1909   1.406       .  A
C1908      F1924   1.357       .  S
C1909      C1910   1.409       .  A
C1910      F1913   1.358       .  S
C1911      C1914   1.405       .  A
C1911      C1918   1.406       .  A
C1914      C1915   1.398       .  A
C1914      F1919   1.358       .  S
C1915      C1916   1.404       .  A
C1915      F1921   1.358       .  S
C1916      C1917   1.403       .  A
C1917      C1918   1.398       .  A
C1917      F1920   1.357       .  S
C1918      F1922   1.358       .  S
C1925      C1926   1.404       .  A
C1925      C1930   1.396       .  A
C1925      F1943   1.358       .  S
C1926      C1927   1.405       .  A
C1926      C1931   1.476       .  S
C1927      C1928   1.398       .  A
C1927      F1932   1.358       .  S
C1928      C1929   1.405       .  A
C1928      F1944   1.358       .  S
C1929      C1930   1.407       .  A
C1930      F1933   1.358       .  S
C1931      C1934   1.404       .  A
C1931      C1938   1.403       .  A
C1934      C1935   1.399       .  A
C1934      F1939   1.358       .  S
C1935      C1936   1.409       .  A
C1935      F1941   1.357       .  S
C1936      C1937   1.409       .  A
C1937      C1938   1.396       .  A
C1937      F1940   1.357       .  S
C1938      F1942   1.358       .  S
C1945      C1946   1.407       .  A
C1945      C1950   1.399       .  A
C1945      F1963   1.358       .  S
C1946      C1947   1.405       .  A
C1946      C1951   1.476       .  S
C1947      C1948   1.394       .  A
C1947      F1952   1.358       .  S
C1948      C1949   1.402       .  A
C1948      F1964   1.357       .  S
C1949      C1950   1.403       .  A
C1950      F1953   1.358       .  S
C1951      C1954   1.405       .  A
C1951      C1958   1.407       .  A
C1954      C1955   1.396       .  A
C1954      F1959   1.358       .  S
C1955      C1956   1.404       .  A
C1955      F1961   1.358       .  S
C1956      C1957   1.403       .  A
C1957      C1958   1.396       .  A
C1957      F1960   1.358       .  S
C1958      F1962   1.358       .  S
C1965      C1966   1.406       .  A
C1965      C1970   1.403       .  A
C1965      F1983   1.358       .  S
C1966      C1967   1.405       .  A
C1966      C1971   1.484       .  S
C1967      C1968   1.398       .  A
C1967      F1972   1.358       .  S
C1968      C1969   1.407       .  A
C1968      F1984   1.358       .  S
C1969      C1970   1.409       .  A
C1970      F1973   1.358       .  S
C1971      C1974   1.405       .  A
C1971      C1978   1.405       .  A
C1974      C1975   1.402       .  A
C1974      F1979   1.358       .  S
C1975      C1976   1.409       .  A
C1975      F1981   1.357       .  S
C1976      C1977   1.409       .  A
C1977      C1978   1.401       .  A
C1977      F1980   1.357       .  S
C1978      F1982   1.358       .  S
C1985      C1986   1.406       .  A
C1985      C1990   1.401       .  A
C1985      F2003   1.358       .  S
C1986      C1987   1.405       .  A
C1986      C1991   1.486       .  S
C1987      C1988   1.400       .  A
C1987      F1992   1.358       .  S
C1988      C1989   1.408       .  A
C1988      F2004   1.357       .  S
C1989      C1990   1.410       .  A
C1990      F1993   1.358       .  S
C1991      C1994   1.408       .  A
C1991      C1998   1.407       .  A
C1994      C1995   1.403       .  A
C1994      F1999   1.358       .  S
C1995      C1996   1.405       .  A
C1995      F2001   1.357       .  S
C1996      C1997   1.404       .  A
C1997      C1998   1.400       .  A
C1997      F2000   1.357       .  S
C1998      F2002   1.358       .  S
C2005      C2006   1.405       .  A
C2005      C2010   1.398       .  A
C2005      F2023   1.358       .  S
C2006      C2007   1.406       .  A
C2006      C2011   1.486       .  S
C2007      C2008   1.403       .  A
C2007      F2012   1.358       .  S
C2008      C2009   1.410       .  A
C2008      F2024   1.357       .  S
C2009      C2010   1.408       .  A
C2010      F2013   1.357       .  S
C2011      C2014   1.406       .  A
C2011      C2018   1.405       .  A
C2014      C2015   1.403       .  A
C2014      F2019   1.358       .  S
C2015      C2016   1.409       .  A
C2015      F2021   1.357       .  S
C2016      C2017   1.409       .  A
C2017      C2018   1.399       .  A
C2017      F2020   1.358       .  S
C2018      F2022   1.358       .  S
C2025      C2026   1.408       .  A
C2025      C2030   1.399       .  A
C2025      F2043   1.358       .  S
C2026      C2027   1.408       .  A
C2026      C2031   1.484       .  S
C2027      C2028   1.398       .  A
C2027      F2032   1.358       .  S
C2028      C2029   1.402       .  A
C2028      F2044   1.358       .  S
C2029      C2030   1.403       .  A
C2030      F2033   1.358       .  S
C2031      C2034   1.405       .  A
C2031      C2038   1.405       .  A
C2034      C2035   1.400       .  A
C2034      F2039   1.358       .  S
C2035      C2036   1.410       .  A
C2035      F2041   1.357       .  S
C2036      C2037   1.410       .  A
C2037      C2038   1.398       .  A
C2037      F2040   1.357       .  S
C2038      F2042   1.358       .  S
C2045      C2046   1.404       .  A
C2045      C2050   1.399       .  A
C2045      F2063   1.358       .  S
C2046      C2047   1.403       .  A
C2046      C2051   1.478       .  S
C2047      C2048   1.397       .  A
C2047      F2052   1.358       .  S
C2048      C2049   1.408       .  A
C2048      F2064   1.357       .  S
C2049      C2050   1.408       .  A
C2050      F2053   1.358       .  S
C2051      C2054   1.403       .  A
C2051      C2058   1.402       .  A
C2054      C2055   1.399       .  A
C2054      F2059   1.358       .  S
C2055      C2056   1.411       .  A
C2055      F2061   1.358       .  S
C2056      C2057   1.412       .  A
C2057      C2058   1.397       .  A
C2057      F2060   1.358       .  S
C2058      F2062   1.358       .  S
C2065      C2066   1.406       .  A
C2065      C2070   1.399       .  A
C2065      F2083   1.358       .  S
C2066      C2067   1.401       .  A
C2066      C2071   1.479       .  S
C2067      C2068   1.394       .  A
C2067      F2072   1.358       .  S
C2068      C2069   1.412       .  A
C2068      F2084   1.358       .  S
C2069      C2070   1.411       .  A
C2070      F2073   1.358       .  S
C2071      C2074   1.406       .  A
C2071      C2078   1.403       .  A
C2074      C2075   1.399       .  A
C2074      F2079   1.358       .  S
C2075      C2076   1.408       .  A
C2075      F2081   1.357       .  S
C2076      C2077   1.408       .  A
C2077      C2078   1.395       .  A
C2077      F2080   1.357       .  S
C2078      F2082   1.358       .  S
C2085      C2086   1.405       .  A
C2085      C2090   1.401       .  A
C2085      F2103   1.358       .  S
C2086      C2087   1.407       .  A
C2086      C2091   1.490       .  S
C2087      C2088   1.404       .  A
C2087      F2092   1.358       .  S
C2088      C2089   1.412       .  A
C2088      F2104   1.358       .  S
C2089      C2090   1.411       .  A
C2090      F2093   1.358       .  S
C2091      C2094   1.406       .  A
C2091      C2098   1.408       .  A
C2094      C2095   1.401       .  A
C2094      F2099   1.358       .  S
C2095      C2096   1.407       .  A
C2095      F2101   1.358       .  S
C2096      C2097   1.407       .  A
C2097      C2098   1.404       .  A
C2097      F2100   1.358       .  S
C2098      F2102   1.358       .  S
C2105      C2106   1.406       .  A
C2105      C2110   1.402       .  A
C2105      F2123   1.358       .  S
C2106      C2107   1.403       .  A
C2106      C2111   1.483       .  S
C2107      C2108   1.397       .  A
C2107      F2112   1.358       .  S
C2108      C2109   1.411       .  A
C2108      F2124   1.357       .  S
C2109      C2110   1.409       .  A
C2110      F2113   1.357       .  S
C2111      C2114   1.405       .  A
C2111      C2118   1.402       .  A
C2114      C2115   1.401       .  A
C2114      F2119   1.358       .  S
C2115      C2116   1.412       .  A
C2115      F2121   1.358       .  S
C2116      C2117   1.414       .  A
C2117      C2118   1.399       .  A
C2117      F2120   1.358       .  S
C2118      F2122   1.358       .  S
C2125      C2126   1.405       .  A
C2125      C2130   1.402       .  A
C2125      F2143   1.358       .  S
C2126      C2127   1.405       .  A
C2126      C2131   1.486       .  S
C2127      C2128   1.397       .  A
C2127      F2132   1.358       .  S
C2128      C2129   1.412       .  A
C2128      F2144   1.358       .  S
C2129      C2130   1.412       .  A
C2130      F2133   1.357       .  S
C2131      C2134   1.406       .  A
C2131      C2138   1.404       .  A
C2134      C2135   1.403       .  A
C2134      F2139   1.358       .  S
C2135      C2136   1.410       .  A
C2135      F2141   1.357       .  S
C2136      C2137   1.409       .  A
C2137      C2138   1.397       .  A
C2137      F2140   1.357       .  S
C2138      F2142   1.358       .  S
C2145      C2146   1.407       .  A
C2145      C2150   1.403       .  A
C2145      F2163   1.358       .  S
C2146      C2147   1.406       .  A
C2146      C2151   1.486       .  S
C2147      C2148   1.399       .  A
C2147      F2152   1.358       .  S
C2148      C2149   1.407       .  A
C2148      F2164   1.358       .  S
C2149      C2150   1.407       .  A
C2150      F2153   1.357       .  S
C2151      C2154   1.406       .  A
C2151      C2158   1.406       .  A
C2154      C2155   1.399       .  A
C2154      F2159   1.358       .  S
C2155      C2156   1.408       .  A
C2155      F2161   1.357       .  S
C2156      C2157   1.410       .  A
C2157      C2158   1.402       .  A
C2157      F2160   1.357       .  S
C2158      F2162   1.358       .  S
C2165      C2166   1.404       .  A
C2165      C2170   1.398       .  A
C2165      F2183   1.358       .  S
C2166      C2167   1.404       .  A
C2166      C2171   1.481       .  S
C2167      C2168   1.400       .  A
C2167      F2172   1.358       .  S
C2168      C2169   1.410       .  A
C2168      F2184   1.357       .  S
C2169      C2170   1.411       .  A
C2170      F2173   1.357       .  S
C2171      C2174   1.405       .  A
C2171      C2178   1.406       .  A
C2174      C2175   1.397       .  A
C2174      F2179   1.358       .  S
C2175      C2176   1.406       .  A
C2175      F2181   1.358       .  S
C2176      C2177   1.408       .  A
C2177      C2178   1.399       .  A
C2177      F2180   1.358       .  S
C2178      F2182   1.358       .  S
C2185      C2186   1.401       .  A
C2185      C2190   1.395       .  A
C2185      F2203   1.358       .  S
C2186      C2187   1.404       .  A
C2186      C2191   1.475       .  S
C2187      C2188   1.399       .  A
C2187      F2192   1.358       .  S
C2188      C2189   1.409       .  A
C2188      F2204   1.357       .  S
C2189      C2190   1.410       .  A
C2190      F2193   1.357       .  S
C2191      C2194   1.404       .  A
C2191      C2198   1.404       .  A
C2194      C2195   1.398       .  A
C2194      F2199   1.358       .  S
C2195      C2196   1.405       .  A
C2195      F2201   1.358       .  S
C2196      C2197   1.405       .  A
C2197      C2198   1.398       .  A
C2197      F2200   1.358       .  S
C2198      F2202   1.358       .  S
C2205      C2206   1.404       .  A
C2205      C2210   1.399       .  A
C2205      F2223   1.358       .  S
C2206      C2207   1.405       .  A
C2206      C2211   1.479       .  S
C2207      C2208   1.399       .  A
C2207      F2212   1.358       .  S
C2208      C2209   1.407       .  A
C2208      F2224   1.358       .  S
C2209      C2210   1.407       .  A
C2210      F2213   1.358       .  S
C2211      C2214   1.406       .  A
C2211      C2218   1.404       .  A
C2214      C2215   1.401       .  A
C2214      F2219   1.358       .  S
C2215      C2216   1.406       .  A
C2215      F2221   1.358       .  S
C2216      C2217   1.403       .  A
C2217      C2218   1.398       .  A
C2217      F2220   1.357       .  S
C2218      F2222   1.357       .  S
C2225      C2226   1.405       .  A
C2225      C2230   1.399       .  A
C2225      F2243   1.358       .  S
C2226      C2227   1.408       .  A
C2226      C2231   1.490       .  S
C2227      C2228   1.405       .  A
C2227      F2232   1.358       .  S
C2228      C2229   1.409       .  A
C2228      F2244   1.357       .  S
C2229      C2230   1.411       .  A
C2230      F2233   1.357       .  S
C2231      C2234   1.409       .  A
C2231      C2238   1.408       .  A
C2234      C2235   1.400       .  A
C2234      F2239   1.358       .  S
C2235      C2236   1.404       .  A
C2235      F2241   1.358       .  S
C2236      C2237   1.405       .  A
C2237      C2238   1.402       .  A
C2237      F2240   1.358       .  S
C2238      F2242   1.357       .  S
C2245      C2246   1.405       .  A
C2245      C2250   1.399       .  A
C2245      F2263   1.358       .  S
C2246      C2247   1.407       .  A
C2246      C2251   1.482       .  S
C2247      C2248   1.400       .  A
C2247      F2252   1.358       .  S
C2248      C2249   1.405       .  A
C2248      F2264   1.358       .  S
C2249      C2250   1.407       .  A
C2250      F2253   1.358       .  S
C2251      C2254   1.404       .  A
C2251      C2258   1.404       .  A
C2254      C2255   1.401       .  A
C2254      F2259   1.358       .  S
C2255      C2256   1.410       .  A
C2255      F2261   1.357       .  S
C2256      C2257   1.410       .  A
C2257      C2258   1.398       .  A
C2257      F2260   1.357       .  S
C2258      F2262   1.358       .  S
C2265      C2266   1.409       .  A
C2265      C2270   1.400       .  A
C2265      F2283   1.358       .  S
C2266      C2267   1.408       .  A
C2266      C2271   1.482       .  S
C2267      C2268   1.393       .  A
C2267      F2272   1.358       .  S
C2268      C2269   1.401       .  A
C2268      F2284   1.358       .  S
C2269      C2270   1.404       .  A
C2270      F2273   1.358       .  S
C2271      C2274   1.407       .  A
C2271      C2278   1.407       .  A
C2274      C2275   1.398       .  A
C2274      F2279   1.358       .  S
C2275      C2276   1.406       .  A
C2275      F2281   1.358       .  S
C2276      C2277   1.405       .  A
C2277      C2278   1.396       .  A
C2277      F2280   1.358       .  S
C2278      F2282   1.358       .  S
C2285      C2286   1.403       .  A
C2285      C2290   1.398       .  A
C2285      F2303   1.358       .  S
C2286      C2287   1.403       .  A
C2286      C2291   1.474       .  S
C2287      C2288   1.399       .  A
C2287      F2292   1.358       .  S
C2288      C2289   1.407       .  A
C2288      F2304   1.358       .  S
C2289      C2290   1.406       .  A
C2290      F2293   1.358       .  S
C2291      C2294   1.403       .  A
C2291      C2298   1.403       .  A
C2294      C2295   1.398       .  A
C2294      F2299   1.358       .  S
C2295      C2296   1.409       .  A
C2295      F2301   1.358       .  S
C2296      C2297   1.407       .  A
C2297      C2298   1.399       .  A
C2297      F2300   1.357       .  S
C2298      F2302   1.358       .  S
C2305      C2306   1.404       .  A
C2305      C2310   1.394       .  A
C2305      F2323   1.358       .  S
C2306      C2307   1.405       .  A
C2306      C2311   1.473       .  S
C2307      C2308   1.399       .  A
C2307      F2312   1.358       .  S
C2308      C2309   1.405       .  A
C2308      F2324   1.358       .  S
C2309      C2310   1.403       .  A
C2310      F2313   1.358       .  S
C2311      C2314   1.406       .  A
C2311      C2318   1.404       .  A
C2314      C2315   1.395       .  A
C2314      F2319   1.358       .  S
C2315      C2316   1.402       .  A
C2315      F2321   1.358       .  S
C2316      C2317   1.404       .  A
C2317      C2318   1.397       .  A
C2317      F2320   1.358       .  S
C2318      F2322   1.358       .  S
C2325      C2326   1.409       .  A
C2325      C2330   1.401       .  A
C2325      F2343   1.358       .  S
C2326      C2327   1.406       .  A
C2326      C2331   1.483       .  S
C2327      C2328   1.395       .  A
C2327      F2332   1.358       .  S
C2328      C2329   1.404       .  A
C2328      F2344   1.358       .  S
C2329      C2330   1.404       .  A
C2330      F2333   1.358       .  S
C2331      C2334   1.407       .  A
C2331      C2338   1.407       .  A
C2334      C2335   1.401       .  A
C2334      F2339   1.358       .  S
C2335      C2336   1.404       .  A
C2335      F2341   1.357       .  S
C2336      C2337   1.405       .  A
C2337      C2338   1.398       .  A
C2337      F2340   1.358       .  S
C2338      F2342   1.358       .  S
C2345      C2346   1.408       .  A
C2345      C2350   1.397       .  A
C2345      F2363   1.358       .  S
C2346      C2347   1.407       .  A
C2346      C2351   1.483       .  S
C2347      C2348   1.399       .  A
C2347      F2352   1.358       .  S
C2348      C2349   1.406       .  A
C2348      F2364   1.358       .  S
C2349      C2350   1.404       .  A
C2350      F2353   1.358       .  S
C2351      C2354   1.405       .  A
C2351      C2358   1.406       .  A
C2354      C2355   1.396       .  A
C2354      F2359   1.358       .  S
C2355      C2356   1.409       .  A
C2355      F2361   1.357       .  S
C2356      C2357   1.409       .  A
C2357      C2358   1.401       .  A
C2357      F2360   1.357       .  S
C2358      F2362   1.358       .  S
C2365      C2366   1.407       .  A
C2365      C2370   1.403       .  A
C2365      F2383   1.358       .  S
C2366      C2367   1.407       .  A
C2366      C2371   1.487       .  S
C2367      C2368   1.398       .  A
C2367      F2372   1.358       .  S
C2368      C2369   1.407       .  A
C2368      F2384   1.358       .  S
C2369      C2370   1.409       .  A
C2370      F2373   1.357       .  S
C2371      C2374   1.407       .  A
C2371      C2378   1.405       .  A
C2374      C2375   1.402       .  A
C2374      F2379   1.358       .  S
C2375      C2376   1.412       .  A
C2375      F2381   1.358       .  S
C2376      C2377   1.410       .  A
C2377      C2378   1.397       .  A
C2377      F2380   1.358       .  S
C2378      F2382   1.358       .  S
C2385      C2386   1.405       .  A
C2385      C2390   1.401       .  A
C2385      F2403   1.358       .  S
C2386      C2387   1.406       .  A
C2386      C2391   1.487       .  S
C2387      C2388   1.403       .  A
C2387      F2392   1.358       .  S
C2388      C2389   1.409       .  A
C2388      F2404   1.357       .  S
C2389      C2390   1.409       .  A
C2390      F2393   1.357       .  S
C2391      C2394   1.406       .  A
C2391      C2398   1.405       .  A
C2394      C2395   1.403       .  A
C2394      F2399   1.358       .  S
C2395      C2396   1.408       .  A
C2395      F2401   1.357       .  S
C2396      C2397   1.409       .  A
C2397      C2398   1.401       .  A
C2397      F2400   1.358       .  S
C2398      F2402   1.358       .  S
C2405      C2406   1.402       .  A
C2405      C2410   1.398       .  A
C2405      F2423   1.358       .  S
C2406      C2407   1.404       .  A
C2406      C2411   1.481       .  S
C2407      C2408   1.402       .  A
C2407      F2412   1.358       .  S
C2408      C2409   1.411       .  A
C2408      F2424   1.357       .  S
C2409      C2410   1.411       .  A
C2410      F2413   1.357       .  S
C2411      C2414   1.404       .  A
C2411      C2418   1.405       .  A
C2414      C2415   1.401       .  A
C2414      F2419   1.358       .  S
C2415      C2416   1.407       .  A
C2415      F2421   1.358       .  S
C2416      C2417   1.407       .  A
C2417      C2418   1.401       .  A
C2417      F2420   1.358       .  S
C2418      F2422   1.358       .  S
C2425      C2426   1.403       .  A
C2425      C2430   1.396       .  A
C2425      F2443   1.358       .  S
C2426      C2427   1.405       .  A
C2426      C2431   1.478       .  S
C2427      C2428   1.402       .  A
C2427      F2432   1.358       .  S
C2428      C2429   1.408       .  A
C2428      F2444   1.358       .  S
C2429      C2430   1.406       .  A
C2430      F2433   1.358       .  S
C2431      C2434   1.403       .  A
C2431      C2438   1.401       .  A
C2434      C2435   1.399       .  A
C2434      F2439   1.358       .  S
C2435      C2436   1.412       .  A
C2435      F2441   1.358       .  S
C2436      C2437   1.413       .  A
C2437      C2438   1.400       .  A
C2437      F2440   1.357       .  S
C2438      F2442   1.358       .  S
C2445      C2446   1.406       .  A
C2445      C2450   1.399       .  A
C2445      F2463   1.358       .  S
C2446      C2447   1.407       .  A
C2446      C2451   1.489       .  S
C2447      C2448   1.402       .  A
C2447      F2452   1.358       .  S
C2448      C2449   1.409       .  A
C2448      F2464   1.357       .  S
C2449      C2450   1.411       .  A
C2450      F2453   1.357       .  S
C2451      C2454   1.407       .  A
C2451      C2458   1.409       .  A
C2454      C2455   1.398       .  A
C2454      F2459   1.358       .  S
C2455      C2456   1.407       .  A
C2455      F2461   1.358       .  S
C2456      C2457   1.406       .  A
C2457      C2458   1.401       .  A
C2457      F2460   1.358       .  S
C2458      F2462   1.358       .  S
C2465      C2466   1.403       .  A
C2465      C2470   1.398       .  A
C2465      F2483   1.358       .  S
C2466      C2467   1.403       .  A
C2466      C2471   1.477       .  S
C2467      C2468   1.399       .  A
C2467      F2472   1.358       .  S
C2468      C2469   1.409       .  A
C2468      F2484   1.357       .  S
C2469      C2470   1.408       .  A
C2470      F2473   1.357       .  S
C2471      C2474   1.405       .  A
C2471      C2478   1.405       .  A
C2474      C2475   1.398       .  A
C2474      F2479   1.358       .  S
C2475      C2476   1.404       .  A
C2475      F2481   1.358       .  S
C2476      C2477   1.404       .  A
C2477      C2478   1.398       .  A
C2477      F2480   1.358       .  S
C2478      F2482   1.358       .  S
C2485      C2486   1.407       .  A
C2485      C2490   1.399       .  A
C2485      F2503   1.358       .  S
C2486      C2487   1.404       .  A
C2486      C2491   1.481       .  S
C2487      C2488   1.398       .  A
C2487      F2492   1.357       .  S
C2488      C2489   1.406       .  A
C2488      F2504   1.357       .  S
C2489      C2490   1.407       .  A
C2490      F2493   1.358       .  S
C2491      C2494   1.407       .  A
C2491      C2498   1.404       .  A
C2494      C2495   1.402       .  A
C2494      F2499   1.358       .  S
C2495      C2496   1.408       .  A
C2495      F2501   1.358       .  S
C2496      C2497   1.407       .  A
C2497      C2498   1.395       .  A
C2497      F2500   1.358       .  S
C2498      F2502   1.358       .  S
C2505      C2506   1.401       .  A
C2505      C2510   1.395       .  A
C2505      F2523   1.358       .  S
C2506      C2507   1.404       .  A
C2506      C2511   1.473       .  S
C2507      C2508   1.400       .  A
C2507      F2512   1.358       .  S
C2508      C2509   1.407       .  A
C2508      F2524   1.358       .  S
C2509      C2510   1.408       .  A
C2510      F2513   1.358       .  S
C2511      C2514   1.402       .  A
C2511      C2518   1.400       .  A
C2514      C2515   1.398       .  A
C2514      F2519   1.359       .  S
C2515      C2516   1.412       .  A
C2515      F2521   1.357       .  S
C2516      C2517   1.411       .  A
C2517      C2518   1.398       .  A
C2517      F2520   1.357       .  S
C2518      F2522   1.358       .  S
C2525      C2526   1.401       .  A
C2525      C2530   1.393       .  A
C2525      F2543   1.358       .  S
C2526      C2527   1.403       .  A
C2526      C2531   1.473       .  S
C2527      C2528   1.401       .  A
C2527      F2532   1.358       .  S
C2528      C2529   1.411       .  A
C2528      F2544   1.358       .  S
C2529      C2530   1.407       .  A
C2530      F2533   1.357       .  S
C2531      C2534   1.404       .  A
C2531      C2538   1.403       .  A
C2534      C2535   1.397       .  A
C2534      F2539   1.358       .  S
C2535      C2536   1.404       .  A
C2535      F2541   1.358       .  S
C2536      C2537   1.406       .  A
C2537      C2538   1.398       .  A
C2537      F2540   1.357       .  S
C2538      F2542   1.358       .  S
C2545      C2546   1.402       .  A
C2545      C2550   1.402       .  A
C2545      F2563   1.358       .  S
C2546      C2547   1.404       .  A
C2546      C2551   1.484       .  S
C2547      C2548   1.403       .  A
C2547      F2552   1.358       .  S
C2548      C2549   1.412       .  A
C2548      F2564   1.357       .  S
C2549      C2550   1.414       .  A
C2550      F2553   1.358       .  S
C2551      C2554   1.404       .  A
C2551      C2558   1.405       .  A
C2554      C2555   1.401       .  A
C2554      F2559   1.358       .  S
C2555      C2556   1.410       .  A
C2555      F2561   1.358       .  S
C2556      C2557   1.408       .  A
C2557      C2558   1.402       .  A
C2557      F2560   1.357       .  S
C2558      F2562   1.358       .  S
C2565      C2566   1.402       .  A
C2565      C2570   1.400       .  A
C2565      F2583   1.358       .  S
C2566      C2567   1.400       .  A
C2566      C2571   1.474       .  S
C2567      C2568   1.396       .  A
C2567      F2572   1.358       .  S
C2568      C2569   1.412       .  A
C2568      F2584   1.357       .  S
C2569      C2570   1.412       .  A
C2570      F2573   1.357       .  S
C2571      C2574   1.402       .  A
C2571      C2578   1.403       .  A
C2574      C2575   1.394       .  A
C2574      F2579   1.358       .  S
C2575      C2576   1.410       .  A
C2575      F2581   1.357       .  S
C2576      C2577   1.408       .  A
C2577      C2578   1.399       .  A
C2577      F2580   1.357       .  S
C2578      F2582   1.358       .  S
C2585      C2586   1.404       .  A
C2585      C2590   1.400       .  A
C2585      F2603   1.358       .  S
C2586      C2587   1.403       .  A
C2586      C2591   1.480       .  S
C2587      C2588   1.398       .  A
C2587      F2592   1.358       .  S
C2588      C2589   1.409       .  A
C2588      F2604   1.357       .  S
C2589      C2590   1.410       .  A
C2590      F2593   1.357       .  S
C2591      C2594   1.407       .  A
C2591      C2598   1.403       .  A
C2594      C2595   1.401       .  A
C2594      F2599   1.358       .  S
C2595      C2596   1.406       .  A
C2595      F2601   1.358       .  S
C2596      C2597   1.407       .  A
C2597      C2598   1.397       .  A
C2597      F2600   1.358       .  S
C2598      F2602   1.358       .  S
C2605      C2606   1.403       .  A
C2605      C2610   1.399       .  A
C2605      F2623   1.358       .  S
C2606      C2607   1.405       .  A
C2606      C2611   1.481       .  S
C2607      C2608   1.404       .  A
C2607      F2612   1.358       .  S
C2608      C2609   1.410       .  A
C2608      F2624   1.357       .  S
C2609      C2610   1.408       .  A
C2610      F2613   1.357       .  S
C2611      C2614   1.404       .  A
C2611      C2618   1.402       .  A
C2614      C2615   1.401       .  A
C2614      F2619   1.358       .  S
C2615      C2616   1.408       .  A
C2615      F2621   1.357       .  S
C2616      C2617   1.411       .  A
C2617      C2618   1.401       .  A
C2617      F2620   1.357       .  S
C2618      F2622   1.358       .  S
C2625      C2626   1.407       .  A
C2625      C2630   1.399       .  A
C2625      F2643   1.358       .  S
C2626      C2627   1.405       .  A
C2626      C2631   1.478       .  S
C2627      C2628   1.394       .  A
C2627      F2632   1.358       .  S
C2628      C2629   1.404       .  A
C2628      F2644   1.358       .  S
C2629      C2630   1.404       .  A
C2630      F2633   1.358       .  S
C2631      C2634   1.404       .  A
C2631      C2638   1.403       .  A
C2634      C2635   1.400       .  A
C2634      F2639   1.358       .  S
C2635      C2636   1.410       .  A
C2635      F2641   1.357       .  S
C2636      C2637   1.410       .  A
C2637      C2638   1.393       .  A
C2637      F2640   1.357       .  S
C2638      F2642   1.358       .  S
C2645      C2646   1.403       .  A
C2645      C2650   1.398       .  A
C2645      F2663   1.358       .  S
C2646      C2647   1.402       .  A
C2646      C2651   1.478       .  S
C2647      C2648   1.401       .  A
C2647      F2652   1.358       .  S
C2648      C2649   1.412       .  A
C2648      F2664   1.356       .  S
C2649      C2650   1.411       .  A
C2650      F2653   1.357       .  S
C2651      C2654   1.404       .  A
C2651      C2658   1.403       .  A
C2654      C2655   1.403       .  A
C2654      F2659   1.358       .  S
C2655      C2656   1.411       .  A
C2655      F2661   1.358       .  S
C2656      C2657   1.406       .  A
C2657      C2658   1.395       .  A
C2657      F2660   1.357       .  S
C2658      F2662   1.358       .  S
C2665      C2666   1.403       .  A
C2665      C2670   1.398       .  A
C2665      F2683   1.358       .  S
C2666      C2667   1.402       .  A
C2666      C2671   1.474       .  S
C2667      C2668   1.397       .  A
C2667      F2672   1.358       .  S
C2668      C2669   1.409       .  A
C2668      F2684   1.357       .  S
C2669      C2670   1.409       .  A
C2670      F2673   1.357       .  S
C2671      C2674   1.402       .  A
C2671      C2678   1.403       .  A
C2674      C2675   1.397       .  A
C2674      F2679   1.358       .  S
C2675      C2676   1.408       .  A
C2675      F2681   1.357       .  S
C2676      C2677   1.410       .  A
C2677      C2678   1.398       .  A
C2677      F2680   1.357       .  S
C2678      F2682   1.358       .  S
C2685      C2686   1.405       .  A
C2685      C2690   1.398       .  A
C2685      F2703   1.358       .  S
C2686      C2687   1.406       .  A
C2686      C2691   1.478       .  S
C2687      C2688   1.397       .  A
C2687      F2692   1.358       .  S
C2688      C2689   1.405       .  A
C2688      F2704   1.358       .  S
C2689      C2690   1.405       .  A
C2690      F2693   1.358       .  S
C2691      C2694   1.406       .  A
C2691      C2698   1.404       .  A
C2694      C2695   1.400       .  A
C2694      F2699   1.358       .  S
C2695      C2696   1.406       .  A
C2695      F2701   1.358       .  S
C2696      C2697   1.407       .  A
C2697      C2698   1.395       .  A
C2697      F2700   1.358       .  S
C2698      F2702   1.358       .  S
C2705      C2706   1.409       .  A
C2705      C2710   1.398       .  A
C2705      F2723   1.358       .  S
C2706      C2707   1.410       .  A
C2706      C2711   1.492       .  S
C2707      C2708   1.405       .  A
C2707      F2712   1.357       .  S
C2708      C2709   1.405       .  A
C2708      F2724   1.357       .  S
C2709      C2710   1.403       .  A
C2710      F2713   1.358       .  S
C2711      C2714   1.408       .  A
C2711      C2718   1.409       .  A
C2714      C2715   1.399       .  A
C2714      F2719   1.358       .  S
C2715      C2716   1.407       .  A
C2715      F2721   1.358       .  S
C2716      C2717   1.408       .  A
C2717      C2718   1.404       .  A
C2717      F2720   1.357       .  S
C2718      F2722   1.358       .  S
C2725      C2726   1.404       .  A
C2725      C2730   1.400       .  A
C2725      F2743   1.358       .  S
C2726      C2727   1.406       .  A
C2726      C2731   1.483       .  S
C2727      C2728   1.401       .  A
C2727      F2732   1.358       .  S
C2728      C2729   1.406       .  A
C2728      F2744   1.357       .  S
C2729      C2730   1.409       .  A
C2730      F2733   1.358       .  S
C2731      C2734   1.405       .  A
C2731      C2738   1.403       .  A
C2734      C2735   1.403       .  A
C2734      F2739   1.358       .  S
C2735      C2736   1.411       .  A
C2735      F2741   1.357       .  S
C2736      C2737   1.410       .  A
C2737      C2738   1.398       .  A
C2737      F2740   1.357       .  S
C2738      F2742   1.358       .  S
C2745      C2746   1.408       .  A
C2745      C2750   1.403       .  A
C2745      F2763   1.358       .  S
C2746      C2747   1.407       .  A
C2746      C2751   1.488       .  S
C2747      C2748   1.400       .  A
C2747      F2752   1.358       .  S
C2748      C2749   1.406       .  A
C2748      F2764   1.358       .  S
C2749      C2750   1.405       .  A
C2750      F2753   1.357       .  S
C2751      C2754   1.405       .  A
C2751      C2758   1.407       .  A
C2754      C2755   1.399       .  A
C2754      F2759   1.358       .  S
C2755      C2756   1.408       .  A
C2755      F2761   1.357       .  S
C2756      C2757   1.409       .  A
C2757      C2758   1.403       .  A
C2757      F2760   1.358       .  S
C2758      F2762   1.358       .  S
C2765      C2766   1.407       .  A
C2765      C2770   1.399       .  A
C2765      F2783   1.358       .  S
C2766      C2767   1.408       .  A
C2766      C2771   1.483       .  S
C2767      C2768   1.398       .  A
C2767      F2772   1.358       .  S
C2768      C2769   1.403       .  A
C2768      F2784   1.358       .  S
C2769      C2770   1.403       .  A
C2770      F2773   1.358       .  S
C2771      C2774   1.405       .  A
C2771      C2778   1.406       .  A
C2774      C2775   1.397       .  A
C2774      F2779   1.358       .  S
C2775      C2776   1.407       .  A
C2775      F2781   1.358       .  S
C2776      C2777   1.408       .  A
C2777      C2778   1.401       .  A
C2777      F2780   1.358       .  S
C2778      F2782   1.358       .  S
C2785      C2786   1.402       .  A
C2785      C2790   1.399       .  A
C2785      F2803   1.358       .  S
C2786      C2787   1.403       .  A
C2786      C2791   1.478       .  S
C2787      C2788   1.400       .  A
C2787      F2792   1.358       .  S
C2788      C2789   1.410       .  A
C2788      F2804   1.357       .  S
C2789      C2790   1.411       .  A
C2790      F2793   1.357       .  S
C2791      C2794   1.401       .  A
C2791      C2798   1.403       .  A
C2794      C2795   1.397       .  A
C2794      F2799   1.358       .  S
C2795      C2796   1.411       .  A
C2795      F2801   1.357       .  S
C2796      C2797   1.411       .  A
C2797      C2798   1.401       .  A
C2797      F2800   1.357       .  S
C2798      F2802   1.358       .  S
C2805      C2806   1.404       .  A
C2805      C2810   1.401       .  A
C2805      F2823   1.358       .  S
C2806      C2807   1.405       .  A
C2806      C2811   1.488       .  S
C2807      C2808   1.398       .  A
C2807      F2812   1.358       .  S
C2808      C2809   1.413       .  A
C2808      F2824   1.356       .  S
C2809      C2810   1.413       .  A
C2810      F2813   1.356       .  S
C2811      C2814   1.408       .  A
C2811      C2818   1.406       .  A
C2814      C2815   1.403       .  A
C2814      F2819   1.358       .  S
C2815      C2816   1.408       .  A
C2815      F2821   1.357       .  S
C2816      C2817   1.407       .  A
C2817      C2818   1.398       .  A
C2817      F2820   1.358       .  S
C2818      F2822   1.358       .  S
C2825      C2826   1.403       .  A
C2825      C2830   1.404       .  A
C2825      F2843   1.358       .  S
C2826      C2827   1.403       .  A
C2826      C2831   1.493       .  S
C2827      C2828   1.398       .  A
C2827      F2832   1.358       .  S
C2828      C2829   1.421       .  A
C2828      F2844   1.356       .  S
C2829      C2830   1.425       .  A
C2830      F2833   1.355       .  S
C2831      C2834   1.408       .  A
C2831      C2838   1.408       .  A
C2834      C2835   1.402       .  A
C2834      F2839   1.358       .  S
C2835      C2836   1.408       .  A
C2835      F2841   1.358       .  S
C2836      C2837   1.409       .  A
C2837      C2838   1.400       .  A
C2837      F2840   1.357       .  S
C2838      F2842   1.358       .  S
C2845      C2846   1.407       .  A
C2845      C2850   1.402       .  A
C2845      F2863   1.358       .  S
C2846      C2847   1.407       .  A
C2846      C2851   1.487       .  S
C2847      C2848   1.398       .  A
C2847      F2852   1.358       .  S
C2848      C2849   1.406       .  A
C2848      F2864   1.358       .  S
C2849      C2850   1.407       .  A
C2850      F2853   1.357       .  S
C2851      C2854   1.407       .  A
C2851      C2858   1.406       .  A
C2854      C2855   1.402       .  A
C2854      F2859   1.358       .  S
C2855      C2856   1.409       .  A
C2855      F2861   1.357       .  S
C2856      C2857   1.407       .  A
C2857      C2858   1.397       .  A
C2857      F2860   1.358       .  S
C2858      F2862   1.358       .  S
C2865      C2866   1.403       .  A
C2865      C2870   1.400       .  A
C2865      F2883   1.358       .  S
C2866      C2867   1.402       .  A
C2866      C2871   1.481       .  S
C2867      C2868   1.400       .  A
C2867      F2872   1.358       .  S
C2868      C2869   1.413       .  A
C2868      F2884   1.356       .  S
C2869      C2870   1.412       .  A
C2870      F2873   1.357       .  S
C2871      C2874   1.406       .  A
C2871      C2878   1.405       .  A
C2874      C2875   1.401       .  A
C2874      F2879   1.358       .  S
C2875      C2876   1.407       .  A
C2875      F2881   1.358       .  S
C2876      C2877   1.406       .  A
C2877      C2878   1.398       .  A
C2877      F2880   1.358       .  S
C2878      F2882   1.358       .  S
C2885      C2886   1.402       .  A
C2885      C2890   1.398       .  A
C2885      F2903   1.358       .  S
C2886      C2887   1.403       .  A
C2886      C2891   1.479       .  S
C2887      C2888   1.400       .  A
C2887      F2892   1.358       .  S
C2888      C2889   1.411       .  A
C2888      F2904   1.357       .  S
C2889      C2890   1.410       .  A
C2890      F2893   1.357       .  S
C2891      C2894   1.404       .  A
C2891      C2898   1.403       .  A
C2894      C2895   1.398       .  A
C2894      F2899   1.358       .  S
C2895      C2896   1.409       .  A
C2895      F2901   1.357       .  S
C2896      C2897   1.410       .  A
C2897      C2898   1.399       .  A
C2897      F2900   1.357       .  S
C2898      F2902   1.358       .  S
C2905      C2906   1.408       .  A
C2905      C2910   1.398       .  A
C2905      F2923   1.358       .  S
C2906      C2907   1.408       .  A
C2906      C2911   1.485       .  S
C2907      C2908   1.398       .  A
C2907      F2912   1.358       .  S
C2908      C2909   1.405       .  A
C2908      F2924   1.358       .  S
C2909      C2910   1.402       .  A
C2910      F2913   1.358       .  S
C2911      C2914   1.406       .  A
C2911      C2918   1.406       .  A
C2914      C2915   1.398       .  A
C2914      F2919   1.358       .  S
C2915      C2916   1.409       .  A
C2915      F2921   1.357       .  S
C2916      C2917   1.408       .  A
C2917      C2918   1.400       .  A
C2917      F2920   1.357       .  S
C2918      F2922   1.358       .  S
C2925      C2926   1.409       .  A
C2925      C2930   1.399       .  A
C2925      F2943   1.358       .  S
C2926      C2927   1.408       .  A
C2926      C2931   1.486       .  S
C2927      C2928   1.401       .  A
C2927      F2932   1.358       .  S
C2928      C2929   1.404       .  A
C2928      F2944   1.357       .  S
C2929      C2930   1.403       .  A
C2930      F2933   1.358       .  S
C2931      C2934   1.406       .  A
C2931      C2938   1.408       .  A
C2934      C2935   1.398       .  A
C2934      F2939   1.358       .  S
C2935      C2936   1.407       .  A
C2935      F2941   1.358       .  S
C2936      C2937   1.406       .  A
C2937      C2938   1.401       .  A
C2937      F2940   1.358       .  S
C2938      F2942   1.358       .  S
C2945      C2946   1.409       .  A
C2945      C2950   1.401       .  A
C2945      F2963   1.358       .  S
C2946      C2947   1.409       .  A
C2946      C2951   1.492       .  S
C2947      C2948   1.402       .  A
C2947      F2952   1.358       .  S
C2948      C2949   1.407       .  A
C2948      F2964   1.358       .  S
C2949      C2950   1.405       .  A
C2950      F2953   1.358       .  S
C2951      C2954   1.409       .  A
C2951      C2958   1.409       .  A
C2954      C2955   1.401       .  A
C2954      F2959   1.358       .  S
C2955      C2956   1.406       .  A
C2955      F2961   1.358       .  S
C2956      C2957   1.406       .  A
C2957      C2958   1.402       .  A
C2957      F2960   1.358       .  S
C2958      F2962   1.358       .  S
C2965      C2966   1.400       .  A
C2965      C2970   1.394       .  A
C2965      F2983   1.358       .  S
C2966      C2967   1.403       .  A
C2966      C2971   1.468       .  S
C2967      C2968   1.401       .  A
C2967      F2972   1.358       .  S
C2968      C2969   1.407       .  A
C2968      F2984   1.358       .  S
C2969      C2970   1.405       .  A
C2970      F2973   1.358       .  S
C2971      C2974   1.403       .  A
C2971      C2978   1.402       .  A
C2974      C2975   1.395       .  A
C2974      F2979   1.358       .  S
C2975      C2976   1.404       .  A
C2975      F2981   1.358       .  S
C2976      C2977   1.405       .  A
C2977      C2978   1.397       .  A
C2977      F2980   1.358       .  S
C2978      F2982   1.358       .  S
C2985      C2986   1.403       .  A
C2985      C2990   1.399       .  A
C2985      F3003   1.358       .  S
C2986      C2987   1.403       .  A
C2986      C2991   1.479       .  S
C2987      C2988   1.398       .  A
C2987      F2992   1.358       .  S
C2988      C2989   1.411       .  A
C2988      F3004   1.357       .  S
C2989      C2990   1.411       .  A
C2990      F2993   1.357       .  S
C2991      C2994   1.403       .  A
C2991      C2998   1.404       .  A
C2994      C2995   1.398       .  A
C2994      F2999   1.358       .  S
C2995      C2996   1.410       .  A
C2995      F3001   1.357       .  S
C2996      C2997   1.408       .  A
C2997      C2998   1.399       .  A
C2997      F3000   1.357       .  S
C2998      F3002   1.358       .  S
C3005      C3006   1.407       .  A
C3005      C3010   1.399       .  A
C3005      F3023   1.358       .  S
C3006      C3007   1.409       .  A
C3006      C3011   1.492       .  S
C3007      C3008   1.403       .  A
C3007      F3012   1.358       .  S
C3008      C3009   1.409       .  A
C3008      F3024   1.357       .  S
C3009      C3010   1.408       .  A
C3010      F3013   1.358       .  S
C3011      C3014   1.408       .  A
C3011      C3018   1.408       .  A
C3014      C3015   1.403       .  A
C3014      F3019   1.358       .  S
C3015      C3016   1.408       .  A
C3015      F3021   1.357       .  S
C3016      C3017   1.408       .  A
C3017      C3018   1.400       .  A
C3017      F3020   1.358       .  S
C3018      F3022   1.358       .  S
C3025      C3026   1.407       .  A
C3025      C3030   1.400       .  A
C3025      F3043   1.358       .  S
C3026      C3027   1.408       .  A
C3026      C3031   1.493       .  S
C3027      C3028   1.403       .  A
C3027      F3032   1.358       .  S
C3028      C3029   1.411       .  A
C3028      F3044   1.357       .  S
C3029      C3030   1.409       .  A
C3030      F3033   1.357       .  S
C3031      C3034   1.409       .  A
C3031      C3038   1.410       .  A
C3034      C3035   1.400       .  A
C3034      F3039   1.357       .  S
C3035      C3036   1.404       .  A
C3035      F3041   1.358       .  S
C3036      C3037   1.405       .  A
C3037      C3038   1.402       .  A
C3037      F3040   1.358       .  S
C3038      F3042   1.358       .  S
C3045      C3046   1.402       .  A
C3045      C3050   1.398       .  A
C3045      F3063   1.358       .  S
C3046      C3047   1.404       .  A
C3046      C3051   1.481       .  S
C3047      C3048   1.404       .  A
C3047      F3052   1.357       .  S
C3048      C3049   1.411       .  A
C3048      F3064   1.357       .  S
C3049      C3050   1.410       .  A
C3050      F3053   1.357       .  S
C3051      C3054   1.403       .  A
C3051      C3058   1.401       .  A
C3054      C3055   1.405       .  A
C3054      F3059   1.358       .  S
C3055      C3056   1.413       .  A
C3055      F3061   1.357       .  S
C3056      C3057   1.413       .  A
C3057      C3058   1.398       .  A
C3057      F3060   1.357       .  S
C3058      F3062   1.358       .  S
C3065      C3066   1.409       .  A
C3065      C3070   1.400       .  A
C3065      F3083   1.358       .  S
C3066      C3067   1.409       .  A
C3066      C3071   1.489       .  S
C3067      C3068   1.400       .  A
C3067      F3072   1.358       .  S
C3068      C3069   1.405       .  A
C3068      F3084   1.358       .  S
C3069      C3070   1.405       .  A
C3070      F3073   1.358       .  S
C3071      C3074   1.410       .  A
C3071      C3078   1.409       .  A
C3074      C3075   1.400       .  A
C3074      F3079   1.357       .  S
C3075      C3076   1.403       .  A
C3075      F3081   1.358       .  S
C3076      C3077   1.403       .  A
C3077      C3078   1.398       .  A
C3077      F3080   1.358       .  S
C3078      F3082   1.358       .  S
C3085      C3086   1.403       .  A
C3085      C3090   1.397       .  A
C3085      F3103   1.358       .  S
C3086      C3087   1.404       .  A
C3086      C3091   1.472       .  S
C3087      C3088   1.395       .  A
C3087      F3092   1.358       .  S
C3088      C3089   1.405       .  A
C3088      F3104   1.358       .  S
C3089      C3090   1.406       .  A
C3090      F3093   1.358       .  S
C3091      C3094   1.402       .  A
C3091      C3098   1.401       .  A
C3094      C3095   1.398       .  A
C3094      F3099   1.358       .  S
C3095      C3096   1.412       .  A
C3095      F3101   1.358       .  S
C3096      C3097   1.411       .  A
C3097      C3098   1.393       .  A
C3097      F3100   1.358       .  S
C3098      F3102   1.358       .  S
C3105      C3106   1.404       .  A
C3105      C3110   1.400       .  A
C3105      F3123   1.358       .  S
C3106      C3107   1.407       .  A
C3106      C3111   1.487       .  S
C3107      C3108   1.405       .  A
C3107      F3112   1.358       .  S
C3108      C3109   1.411       .  A
C3108      F3124   1.358       .  S
C3109      C3110   1.410       .  A
C3110      F3113   1.358       .  S
C3111      C3114   1.404       .  A
C3111      C3118   1.405       .  A
C3114      C3115   1.402       .  A
C3114      F3119   1.358       .  S
C3115      C3116   1.412       .  A
C3115      F3121   1.357       .  S
C3116      C3117   1.412       .  A
C3117      C3118   1.402       .  A
C3117      F3120   1.357       .  S
C3118      F3122   1.358       .  S
C3125      C3126   1.406       .  A
C3125      C3130   1.398       .  A
C3125      F3143   1.358       .  S
C3126      C3127   1.406       .  A
C3126      C3131   1.483       .  S
C3127      C3128   1.400       .  A
C3127      F3132   1.358       .  S
C3128      C3129   1.407       .  A
C3128      F3144   1.357       .  S
C3129      C3130   1.407       .  A
C3130      F3133   1.358       .  S
C3131      C3134   1.406       .  A
C3131      C3138   1.405       .  A
C3134      C3135   1.397       .  A
C3134      F3139   1.358       .  S
C3135      C3136   1.410       .  A
C3135      F3141   1.358       .  S
C3136      C3137   1.410       .  A
C3137      C3138   1.399       .  A
C3137      F3140   1.358       .  S
C3138      F3142   1.358       .  S
C3145      C3146   1.409       .  A
C3145      C3150   1.404       .  A
C3145      F3163   1.358       .  S
C3146      C3147   1.407       .  A
C3146      C3151   1.491       .  S
C3147      C3148   1.401       .  A
C3147      F3152   1.358       .  S
C3148      C3149   1.408       .  A
C3148      F3164   1.357       .  S
C3149      C3150   1.407       .  A
C3150      F3153   1.358       .  S
C3151      C3154   1.406       .  A
C3151      C3158   1.407       .  A
C3154      C3155   1.401       .  A
C3154      F3159   1.358       .  S
C3155      C3156   1.412       .  A
C3155      F3161   1.358       .  S
C3156      C3157   1.411       .  A
C3157      C3158   1.402       .  A
C3157      F3160   1.358       .  S
C3158      F3162   1.358       .  S
C3165      C3166   1.404       .  A
C3165      C3170   1.402       .  A
C3165      F3183   1.358       .  S
C3166      C3167   1.404       .  A
C3166      C3171   1.485       .  S
C3167      C3168   1.400       .  A
C3167      F3172   1.358       .  S
C3168      C3169   1.413       .  A
C3168      F3184   1.358       .  S
C3169      C3170   1.412       .  A
C3170      F3173   1.357       .  S
C3171      C3174   1.406       .  A
C3171      C3178   1.404       .  A
C3174      C3175   1.403       .  A
C3174      F3179   1.358       .  S
C3175      C3176   1.409       .  A
C3175      F3181   1.357       .  S
C3176      C3177   1.409       .  A
C3177      C3178   1.399       .  A
C3177      F3180   1.357       .  S
C3178      F3182   1.358       .  S
C3185      C3186   1.403       .  A
C3185      C3190   1.401       .  A
C3185      F3203   1.358       .  S
C3186      C3187   1.401       .  A
C3186      C3191   1.476       .  S
C3187      C3188   1.398       .  A
C3187      F3192   1.358       .  S
C3188      C3189   1.412       .  A
C3188      F3204   1.357       .  S
C3189      C3190   1.412       .  A
C3190      F3193   1.358       .  S
C3191      C3194   1.402       .  A
C3191      C3198   1.403       .  A
C3194      C3195   1.398       .  A
C3194      F3199   1.358       .  S
C3195      C3196   1.410       .  A
C3195      F3201   1.357       .  S
C3196      C3197   1.409       .  A
C3197      C3198   1.400       .  A
C3197      F3200   1.357       .  S
C3198      F3202   1.358       .  S
C3205      C3206   1.404       .  A
C3205      C3210   1.398       .  A
C3205      F3223   1.358       .  S
C3206      C3207   1.403       .  A
C3206      C3211   1.475       .  S
C3207      C3208   1.397       .  A
C3207      F3212   1.358       .  S
C3208      C3209   1.407       .  A
C3208      F3224   1.358       .  S
C3209      C3210   1.407       .  A
C3210      F3213   1.358       .  S
C3211      C3214   1.403       .  A
C3211      C3218   1.401       .  A
C3214      C3215   1.400       .  A
C3214      F3219   1.358       .  S
C3215      C3216   1.411       .  A
C3215      F3221   1.357       .  S
C3216      C3217   1.411       .  A
C3217      C3218   1.397       .  A
C3217      F3220   1.357       .  S
C3218      F3222   1.358       .  S
C3225      C3226   1.404       .  A
C3225      C3230   1.398       .  A
C3225      F3243   1.358       .  S
C3226      C3227   1.404       .  A
C3226      C3231   1.479       .  S
C3227      C3228   1.399       .  A
C3227      F3232   1.358       .  S
C3228      C3229   1.410       .  A
C3228      F3244   1.358       .  S
C3229      C3230   1.408       .  A
C3230      F3233   1.357       .  S
C3231      C3234   1.403       .  A
C3231      C3238   1.404       .  A
C3234      C3235   1.396       .  A
C3234      F3239   1.358       .  S
C3235      C3236   1.411       .  A
C3235      F3241   1.358       .  S
C3236      C3237   1.412       .  A
C3237      C3238   1.400       .  A
C3237      F3240   1.358       .  S
C3238      F3242   1.358       .  S
C3245      C3246   1.405       .  A
C3245      C3250   1.407       .  A
C3245      F3263   1.358       .  S
C3246      C3247   1.403       .  A
C3246      C3251   1.488       .  S
C3247      C3248   1.399       .  A
C3247      F3252   1.358       .  S
C3248      C3249   1.412       .  A
C3248      F3264   1.357       .  S
C3249      C3250   1.413       .  A
C3250      F3253   1.357       .  S
C3251      C3254   1.406       .  A
C3251      C3258   1.406       .  A
C3254      C3255   1.404       .  A
C3254      F3259   1.358       .  S
C3255      C3256   1.408       .  A
C3255      F3261   1.358       .  S
C3256      C3257   1.407       .  A
C3257      C3258   1.402       .  A
C3257      F3260   1.357       .  S
C3258      F3262   1.358       .  S
C3265      C3266   1.406       .  A
C3265      C3270   1.400       .  A
C3265      F3283   1.358       .  S
C3266      C3267   1.405       .  A
C3266      C3271   1.484       .  S
C3267      C3268   1.401       .  A
C3267      F3272   1.358       .  S
C3268      C3269   1.408       .  A
C3268      F3284   1.357       .  S
C3269      C3270   1.408       .  A
C3270      F3273   1.358       .  S
C3271      C3274   1.406       .  A
C3271      C3278   1.405       .  A
C3274      C3275   1.403       .  A
C3274      F3279   1.358       .  S
C3275      C3276   1.408       .  A
C3275      F3281   1.358       .  S
C3276      C3277   1.407       .  A
C3277      C3278   1.399       .  A
C3277      F3280   1.358       .  S
C3278      F3282   1.358       .  S
C3285      C3286   1.406       .  A
C3285      C3290   1.402       .  A
C3285      F3303   1.358       .  S
C3286      C3287   1.406       .  A
C3286      C3291   1.487       .  S
C3287      C3288   1.401       .  A
C3287      F3292   1.358       .  S
C3288      C3289   1.406       .  A
C3288      F3304   1.357       .  S
C3289      C3290   1.408       .  A
C3290      F3293   1.358       .  S
C3291      C3294   1.404       .  A
C3291      C3298   1.405       .  A
C3294      C3295   1.401       .  A
C3294      F3299   1.358       .  S
C3295      C3296   1.410       .  A
C3295      F3301   1.356       .  S
C3296      C3297   1.413       .  A
C3297      C3298   1.403       .  A
C3297      F3300   1.357       .  S
C3298      F3302   1.358       .  S
C3305      C3306   1.407       .  A
C3305      C3310   1.401       .  A
C3305      F3323   1.358       .  S
C3306      C3307   1.407       .  A
C3306      C3311   1.481       .  S
C3307      C3308   1.395       .  A
C3307      F3312   1.358       .  S
C3308      C3309   1.403       .  A
C3308      F3324   1.358       .  S
C3309      C3310   1.406       .  A
C3310      F3313   1.358       .  S
C3311      C3314   1.407       .  A
C3311      C3318   1.405       .  A
C3314      C3315   1.402       .  A
C3314      F3319   1.358       .  S
C3315      C3316   1.407       .  A
C3315      F3321   1.358       .  S
C3316      C3317   1.404       .  A
C3317      C3318   1.394       .  A
C3317      F3320   1.358       .  S
C3318      F3322   1.358       .  S
C3325      C3326   1.403       .  A
C3325      C3330   1.397       .  A
C3325      F3343   1.358       .  S
C3326      C3327   1.403       .  A
C3326      C3331   1.474       .  S
C3327      C3328   1.397       .  A
C3327      F3332   1.358       .  S
C3328      C3329   1.407       .  A
C3328      F3344   1.357       .  S
C3329      C3330   1.409       .  A
C3330      F3333   1.358       .  S
C3331      C3334   1.402       .  A
C3331      C3338   1.402       .  A
C3334      C3335   1.396       .  A
C3334      F3339   1.358       .  S
C3335      C3336   1.410       .  A
C3335      F3341   1.357       .  S
C3336      C3337   1.411       .  A
C3337      C3338   1.397       .  A
C3337      F3340   1.357       .  S
C3338      F3342   1.358       .  S
C3345      C3346   1.406       .  A
C3345      C3350   1.399       .  A
C3345      F3363   1.358       .  S
C3346      C3347   1.407       .  A
C3346      C3351   1.486       .  S
C3347      C3348   1.402       .  A
C3347      F3352   1.358       .  S
C3348      C3349   1.407       .  A
C3348      F3364   1.357       .  S
C3349      C3350   1.408       .  A
C3350      F3353   1.358       .  S
C3351      C3354   1.406       .  A
C3351      C3358   1.406       .  A
C3354      C3355   1.399       .  A
C3354      F3359   1.358       .  S
C3355      C3356   1.407       .  A
C3355      F3361   1.358       .  S
C3356      C3357   1.408       .  A
C3357      C3358   1.402       .  A
C3357      F3360   1.358       .  S
C3358      F3362   1.358       .  S
C3365      C3366   1.404       .  A
C3365      C3370   1.399       .  A
C3365      F3383   1.358       .  S
C3366      C3367   1.403       .  A
C3366      C3371   1.481       .  S
C3367      C3368   1.399       .  A
C3367      F3372   1.358       .  S
C3368      C3369   1.410       .  A
C3368      F3384   1.357       .  S
C3369      C3370   1.409       .  A
C3370      F3373   1.357       .  S
C3371      C3374   1.403       .  A
C3371      C3378   1.405       .  A
C3374      C3375   1.398       .  A
C3374      F3379   1.358       .  S
C3375      C3376   1.409       .  A
C3375      F3381   1.357       .  S
C3376      C3377   1.411       .  A
C3377      C3378   1.402       .  A
C3377      F3380   1.357       .  S
C3378      F3382   1.358       .  S
C3385      C3386   1.407       .  A
C3385      C3390   1.398       .  A
C3385      F3403   1.358       .  S
C3386      C3387   1.407       .  A
C3386      C3391   1.486       .  S
C3387      C3388   1.400       .  A
C3387      F3392   1.358       .  S
C3388      C3389   1.408       .  A
C3388      F3404   1.357       .  S
C3389      C3390   1.408       .  A
C3390      F3393   1.357       .  S
C3391      C3394   1.408       .  A
C3391      C3398   1.408       .  A
C3394      C3395   1.399       .  A
C3394      F3399   1.358       .  S
C3395      C3396   1.404       .  A
C3395      F3401   1.358       .  S
C3396      C3397   1.404       .  A
C3397      C3398   1.399       .  A
C3397      F3400   1.358       .  S
C3398      F3402   1.358       .  S
C3405      C3406   1.404       .  A
C3405      C3410   1.397       .  A
C3405      F3423   1.358       .  S
C3406      C3407   1.406       .  A
C3406      C3411   1.480       .  S
C3407      C3408   1.403       .  A
C3407      F3412   1.358       .  S
C3408      C3409   1.407       .  A
C3408      F3424   1.358       .  S
C3409      C3410   1.406       .  A
C3410      F3413   1.358       .  S
C3411      C3414   1.406       .  A
C3411      C3418   1.405       .  A
C3414      C3415   1.398       .  A
C3414      F3419   1.358       .  S
C3415      C3416   1.404       .  A
C3415      F3421   1.358       .  S
C3416      C3417   1.405       .  A
C3417      C3418   1.401       .  A
C3417      F3420   1.357       .  S
C3418      F3422   1.357       .  S
C3425      C3426   1.403       .  A
C3425      C3430   1.395       .  A
C3425      F3443   1.358       .  S
C3426      C3427   1.407       .  A
C3426      C3431   1.482       .  S
C3427      C3428   1.403       .  A
C3427      F3432   1.358       .  S
C3428      C3429   1.408       .  A
C3428      F3444   1.357       .  S
C3429      C3430   1.408       .  A
C3430      F3433   1.357       .  S
C3431      C3434   1.406       .  A
C3431      C3438   1.408       .  A
C3434      C3435   1.401       .  A
C3434      F3439   1.357       .  S
C3435      C3436   1.404       .  A
C3435      F3441   1.357       .  S
C3436      C3437   1.404       .  A
C3437      C3438   1.397       .  A
C3437      F3440   1.358       .  S
C3438      F3442   1.358       .  S
C3445      C3446   1.405       .  A
C3445      C3450   1.399       .  A
C3445      F3463   1.358       .  S
C3446      C3447   1.405       .  A
C3446      C3451   1.481       .  S
C3447      C3448   1.400       .  A
C3447      F3452   1.358       .  S
C3448      C3449   1.407       .  A
C3448      F3464   1.358       .  S
C3449      C3450   1.409       .  A
C3450      F3453   1.358       .  S
C3451      C3454   1.402       .  A
C3451      C3458   1.404       .  A
C3454      C3455   1.399       .  A
C3454      F3459   1.358       .  S
C3455      C3456   1.411       .  A
C3455      F3461   1.356       .  S
C3456      C3457   1.413       .  A
C3457      C3458   1.401       .  A
C3457      F3460   1.357       .  S
C3458      F3462   1.358       .  S
C3465      C3466   1.409       .  A
C3465      C3470   1.400       .  A
C3465      F3483   1.358       .  S
C3466      C3467   1.409       .  A
C3466      C3471   1.488       .  S
C3467      C3468   1.399       .  A
C3467      F3472   1.358       .  S
C3468      C3469   1.403       .  A
C3468      F3484   1.358       .  S
C3469      C3470   1.404       .  A
C3470      F3473   1.358       .  S
C3471      C3474   1.408       .  A
C3471      C3478   1.408       .  A
C3474      C3475   1.401       .  A
C3474      F3479   1.358       .  S
C3475      C3476   1.407       .  A
C3475      F3481   1.358       .  S
C3476      C3477   1.406       .  A
C3477      C3478   1.398       .  A
C3477      F3480   1.358       .  S
C3478      F3482   1.358       .  S
C3485      C3486   1.403       .  A
C3485      C3490   1.396       .  A
C3485      F3503   1.358       .  S
C3486      C3487   1.404       .  A
C3486      C3491   1.474       .  S
C3487      C3488   1.400       .  A
C3487      F3492   1.358       .  S
C3488      C3489   1.406       .  A
C3488      F3504   1.358       .  S
C3489      C3490   1.404       .  A
C3490      F3493   1.358       .  S
C3491      C3494   1.402       .  A
C3491      C3498   1.402       .  A
C3494      C3495   1.397       .  A
C3494      F3499   1.358       .  S
C3495      C3496   1.408       .  A
C3495      F3501   1.358       .  S
C3496      C3497   1.409       .  A
C3497      C3498   1.400       .  A
C3497      F3500   1.357       .  S
C3498      F3502   1.358       .  S
C3505      C3506   1.407       .  A
C3505      C3510   1.403       .  A
C3505      F3523   1.357       .  S
C3506      C3507   1.407       .  A
C3506      C3511   1.485       .  S
C3507      C3508   1.399       .  A
C3507      F3512   1.358       .  S
C3508      C3509   1.404       .  A
C3508      F3524   1.358       .  S
C3509      C3510   1.406       .  A
C3510      F3513   1.358       .  S
C3511      C3514   1.405       .  A
C3511      C3518   1.406       .  A
C3514      C3515   1.399       .  A
C3514      F3519   1.358       .  S
C3515      C3516   1.408       .  A
C3515      F3521   1.357       .  S
C3516      C3517   1.410       .  A
C3517      C3518   1.404       .  A
C3517      F3520   1.357       .  S
C3518      F3522   1.358       .  S
C3525      C3526   1.404       .  A
C3525      C3530   1.400       .  A
C3525      F3543   1.358       .  S
C3526      C3527   1.402       .  A
C3526      C3531   1.478       .  S
C3527      C3528   1.399       .  A
C3527      F3532   1.358       .  S
C3528      C3529   1.410       .  A
C3528      F3544   1.357       .  S
C3529      C3530   1.409       .  A
C3530      F3533   1.357       .  S
C3531      C3534   1.403       .  A
C3531      C3538   1.402       .  A
C3534      C3535   1.402       .  A
C3534      F3539   1.358       .  S
C3535      C3536   1.410       .  A
C3535      F3541   1.357       .  S
C3536      C3537   1.410       .  A
C3537      C3538   1.399       .  A
C3537      F3540   1.357       .  S
C3538      F3542   1.358       .  S
C3545      C3546   1.407       .  A
C3545      C3550   1.403       .  A
C3545      F3563   1.358       .  S
C3546      C3547   1.407       .  A
C3546      C3551   1.489       .  S
C3547      C3548   1.399       .  A
C3547      F3552   1.358       .  S
C3548      C3549   1.408       .  A
C3548      F3564   1.357       .  S
C3549      C3550   1.409       .  A
C3550      F3553   1.357       .  S
C3551      C3554   1.408       .  A
C3551      C3558   1.406       .  A
C3554      C3555   1.404       .  A
C3554      F3559   1.358       .  S
C3555      C3556   1.409       .  A
C3555      F3561   1.358       .  S
C3556      C3557   1.407       .  A
C3557      C3558   1.399       .  A
C3557      F3560   1.358       .  S
C3558      F3562   1.358       .  S
C3565      C3566   1.404       .  A
C3565      C3570   1.402       .  A
C3565      F3583   1.358       .  S
C3566      C3567   1.404       .  A
C3566      C3571   1.486       .  S
C3567      C3568   1.400       .  A
C3567      F3572   1.358       .  S
C3568      C3569   1.413       .  A
C3568      F3584   1.357       .  S
C3569      C3570   1.412       .  A
C3570      F3573   1.356       .  S
C3571      C3574   1.404       .  A
C3571      C3578   1.406       .  A
C3574      C3575   1.400       .  A
C3574      F3579   1.358       .  S
C3575      C3576   1.409       .  A
C3575      F3581   1.357       .  S
C3576      C3577   1.410       .  A
C3577      C3578   1.404       .  A
C3577      F3580   1.357       .  S
C3578      F3582   1.358       .  S
C3585      C3586   1.403       .  A
C3585      C3590   1.400       .  A
C3585      F3603   1.358       .  S
C3586      C3587   1.405       .  A
C3586      C3591   1.481       .  S
C3587      C3588   1.398       .  A
C3587      F3592   1.358       .  S
C3588      C3589   1.409       .  A
C3588      F3604   1.357       .  S
C3589      C3590   1.411       .  A
C3590      F3593   1.357       .  S
C3591      C3594   1.408       .  A
C3591      C3598   1.405       .  A
C3594      C3595   1.401       .  A
C3594      F3599   1.358       .  S
C3595      C3596   1.405       .  A
C3595      F3601   1.358       .  S
C3596      C3597   1.402       .  A
C3597      C3598   1.396       .  A
C3597      F3600   1.357       .  S
C3598      F3602   1.358       .  S
C3605      C3606   1.405       .  A
C3605      C3610   1.401       .  A
C3605      F3623   1.358       .  S
C3606      C3607   1.406       .  A
C3606      C3611   1.489       .  S
C3607      C3608   1.402       .  A
C3607      F3612   1.358       .  S
C3608      C3609   1.410       .  A
C3608      F3624   1.357       .  S
C3609      C3610   1.411       .  A
C3610      F3613   1.357       .  S
C3611      C3614   1.405       .  A
C3611      C3618   1.405       .  A
C3614      C3615   1.402       .  A
C3614      F3619   1.358       .  S
C3615      C3616   1.412       .  A
C3615      F3621   1.358       .  S
C3616      C3617   1.412       .  A
C3617      C3618   1.403       .  A
C3617      F3620   1.358       .  S
C3618      F3622   1.358       .  S
C3625      C3626   1.406       .  A
C3625      C3630   1.397       .  A
C3625      F3643   1.358       .  S
C3626      C3627   1.409       .  A
C3626      C3631   1.484       .  S
C3627      C3628   1.398       .  A
C3627      F3632   1.358       .  S
C3628      C3629   1.403       .  A
C3628      F3644   1.358       .  S
C3629      C3630   1.405       .  A
C3630      F3633   1.358       .  S
C3631      C3634   1.406       .  A
C3631      C3638   1.405       .  A
C3634      C3635   1.399       .  A
C3634      F3639   1.358       .  S
C3635      C3636   1.410       .  A
C3635      F3641   1.357       .  S
C3636      C3637   1.408       .  A
C3637      C3638   1.398       .  A
C3637      F3640   1.357       .  S
C3638      F3642   1.358       .  S
C3645      C3646   1.408       .  A
C3645      C3650   1.401       .  A
C3645      F3663   1.358       .  S
C3646      C3647   1.407       .  A
C3646      C3651   1.488       .  S
C3647      C3648   1.399       .  A
C3647      F3652   1.358       .  S
C3648      C3649   1.407       .  A
C3648      F3664   1.357       .  S
C3649      C3650   1.408       .  A
C3650      F3653   1.358       .  S
C3651      C3654   1.410       .  A
C3651      C3658   1.410       .  A
C3654      C3655   1.400       .  A
C3654      F3659   1.358       .  S
C3655      C3656   1.403       .  A
C3655      F3661   1.358       .  S
C3656      C3657   1.401       .  A
C3657      C3658   1.397       .  A
C3657      F3660   1.358       .  S
C3658      F3662   1.357       .  S
C3665      C3666   1.404       .  A
C3665      C3670   1.400       .  A
C3665      F3683   1.358       .  S
C3666      C3667   1.406       .  A
C3666      C3671   1.486       .  S
C3667      C3668   1.404       .  A
C3667      F3672   1.358       .  S
C3668      C3669   1.409       .  A
C3668      F3684   1.357       .  S
C3669      C3670   1.411       .  A
C3670      F3673   1.357       .  S
C3671      C3674   1.405       .  A
C3671      C3678   1.404       .  A
C3674      C3675   1.402       .  A
C3674      F3679   1.358       .  S
C3675      C3676   1.410       .  A
C3675      F3681   1.357       .  S
C3676      C3677   1.411       .  A
C3677      C3678   1.400       .  A
C3677      F3680   1.357       .  S
C3678      F3682   1.358       .  S
C3685      C3686   1.406       .  A
C3685      C3690   1.399       .  A
C3685      F3703   1.358       .  S
C3686      C3687   1.407       .  A
C3686      C3691   1.485       .  S
C3687      C3688   1.401       .  A
C3687      F3692   1.358       .  S
C3688      C3689   1.407       .  A
C3688      F3704   1.357       .  S
C3689      C3690   1.407       .  A
C3690      F3693   1.358       .  S
C3691      C3694   1.405       .  A
C3691      C3698   1.406       .  A
C3694      C3695   1.397       .  A
C3694      F3699   1.358       .  S
C3695      C3696   1.409       .  A
C3695      F3701   1.358       .  S
C3696      C3697   1.409       .  A
C3697      C3698   1.401       .  A
C3697      F3700   1.358       .  S
C3698      F3702   1.358       .  S
C3705      C3706   1.404       .  A
C3705      C3710   1.401       .  A
C3705      F3723   1.358       .  S
C3706      C3707   1.404       .  A
C3706      C3711   1.478       .  S
C3707      C3708   1.398       .  A
C3707      F3712   1.358       .  S
C3708      C3709   1.407       .  A
C3708      F3724   1.358       .  S
C3709      C3710   1.407       .  A
C3710      F3713   1.357       .  S
C3711      C3714   1.404       .  A
C3711      C3718   1.403       .  A
C3714      C3715   1.402       .  A
C3714      F3719   1.358       .  S
C3715      C3716   1.409       .  A
C3715      F3721   1.357       .  S
C3716      C3717   1.408       .  A
C3717      C3718   1.398       .  A
C3717      F3720   1.358       .  S
C3718      F3722   1.358       .  S
C3725      C3726   1.408       .  A
C3725      C3730   1.399       .  A
C3725      F3743   1.358       .  S
C3726      C3727   1.408       .  A
C3726      C3731   1.486       .  S
C3727      C3728   1.400       .  A
C3727      F3732   1.358       .  S
C3728      C3729   1.404       .  A
C3728      F3744   1.358       .  S
C3729      C3730   1.405       .  A
C3730      F3733   1.358       .  S
C3731      C3734   1.408       .  A
C3731      C3738   1.408       .  A
C3734      C3735   1.399       .  A
C3734      F3739   1.358       .  S
C3735      C3736   1.403       .  A
C3735      F3741   1.358       .  S
C3736      C3737   1.404       .  A
C3737      C3738   1.401       .  A
C3737      F3740   1.357       .  S
C3738      F3742   1.358       .  S
C3745      C3746   1.407       .  A
C3745      C3750   1.400       .  A
C3745      F3763   1.358       .  S
C3746      C3747   1.406       .  A
C3746      C3751   1.486       .  S
C3747      C3748   1.397       .  A
C3747      F3752   1.358       .  S
C3748      C3749   1.409       .  A
C3748      F3764   1.357       .  S
C3749      C3750   1.408       .  A
C3750      F3753   1.357       .  S
C3751      C3754   1.406       .  A
C3751      C3758   1.406       .  A
C3754      C3755   1.398       .  A
C3754      F3759   1.358       .  S
C3755      C3756   1.410       .  A
C3755      F3761   1.358       .  S
C3756      C3757   1.412       .  A
C3757      C3758   1.398       .  A
C3757      F3760   1.358       .  S
C3758      F3762   1.358       .  S
C3765      C3766   1.403       .  A
C3765      C3770   1.399       .  A
C3765      F3783   1.358       .  S
C3766      C3767   1.403       .  A
C3766      C3771   1.475       .  S
C3767      C3768   1.400       .  A
C3767      F3772   1.358       .  S
C3768      C3769   1.407       .  A
C3768      F3784   1.357       .  S
C3769      C3770   1.408       .  A
C3770      F3773   1.358       .  S
C3771      C3774   1.401       .  A
C3771      C3778   1.403       .  A
C3774      C3775   1.396       .  A
C3774      F3779   1.358       .  S
C3775      C3776   1.410       .  A
C3775      F3781   1.357       .  S
C3776      C3777   1.410       .  A
C3777      C3778   1.401       .  A
C3777      F3780   1.357       .  S
C3778      F3782   1.358       .  S
C3785      C3786   1.406       .  A
C3785      C3790   1.395       .  A
C3785      F3803   1.358       .  S
C3786      C3787   1.408       .  A
C3786      C3791   1.480       .  S
C3787      C3788   1.400       .  A
C3787      F3792   1.358       .  S
C3788      C3789   1.405       .  A
C3788      F3804   1.358       .  S
C3789      C3790   1.402       .  A
C3790      F3793   1.358       .  S
C3791      C3794   1.405       .  A
C3791      C3798   1.405       .  A
C3794      C3795   1.398       .  A
C3794      F3799   1.358       .  S
C3795      C3796   1.407       .  A
C3795      F3801   1.357       .  S
C3796      C3797   1.409       .  A
C3797      C3798   1.399       .  A
C3797      F3800   1.358       .  S
C3798      F3802   1.358       .  S
