geometry optimzed in LAMMPS
_audit_creation_date              2020-11-30 
_audit_creation_method            'lammps2cif' 
_symmetry_space_group_name_H-M    'P1' 
_symmetry_Int_Tables_number       1 
_symmetry_cell_setting            triclinic 
loop_ 
_symmetry_equiv_pos_as_xyz 
  x,y,z 
_cell_length_a                    60.74012513 
_cell_length_b                    60.78588610709602 
_cell_length_c                    60.71270722990573 
_cell_angle_alpha                 89.94316585348896 
_cell_angle_beta                  90.04657356457882 
_cell_angle_gamma                 90.04341080508038 
loop_ 
_atom_site_label 
_atom_site_type_symbol 
_atom_site_fract_x 
_atom_site_fract_y 
_atom_site_fract_z 
_atom_site_charge 
O1          O  0.74856739  0.78826966  0.72733234    -0.88000
C2          C  0.69208303  0.75358289  0.73714329     0.88100
Mg3        Mg  0.77529102  0.77495829  0.70863932     1.58100
O4          O  0.72690598  0.75503493  0.78308378    -0.87700
O5          O  0.74285450  0.79947297  0.76122989    -0.75000
C6          C  0.78676866  0.67172872  0.74482461     0.93100
O7          O  0.72457706  0.75454039  0.69452593    -0.74900
O8          O  0.79013680  0.68362254  0.72788970    -0.82400
Mg9        Mg  0.71649453  0.78687400  0.71243003     1.58000
C10         C  0.74019721  0.69997701  0.82008406     0.93000
O11         O  0.70579216  0.82026137  0.72761010    -0.80600
H12         H  0.74359885  0.77214256  0.80575453    -0.06000
C13         C  0.72984448  0.70019513  0.74568311     0.88000
O14         O  0.79215857  0.76317777  0.74049009    -0.75100
O15         O  0.70513074  0.76884798  0.74069280    -0.87900
O16         O  0.72401742  0.71179161  0.81365872    -0.80700
C17         C  0.66861755  0.75517777  0.79530065     0.93100
C18         C  0.69624150  0.82735012  0.74495722     0.93000
Mg19       Mg  0.76726286  0.71274734  0.77648398     1.58000
O20         O  0.77677710  0.67924324  0.76165474    -0.80600
O21         O  0.75971504  0.74520337  0.79436382    -0.74900
O22         O  0.67646144  0.77141963  0.78458709    -0.80700
O23         O  0.72828411  0.80468173  0.68138053    -0.82400
O24         O  0.80741632  0.72779902  0.70479240    -0.80700
C25         C  0.74317869  0.75797227  0.79497669     0.87400
O26         O  0.77855066  0.73062962  0.74837817    -0.87900
O27         O  0.73527102  0.71149259  0.76176601    -0.88000
O28         O  0.74080903  0.70027216  0.72783863    -0.75000
Mg29       Mg  0.71014329  0.78394621  0.77229491     1.58000
O30         O  0.67999614  0.73814680  0.79960226    -0.82400
H31         H  0.76855518  0.80963151  0.74243838    -0.06100
O32         O  0.75737928  0.74459845  0.70580659    -0.87700
H33         H  0.74075415  0.72774434  0.68291125    -0.06000
H34         H  0.80239236  0.74457157  0.76631028    -0.06100
C35         C  0.74113845  0.74179648  0.69382920     0.87400
C36         C  0.75379055  0.79971165  0.74337258     0.88000
C37         C  0.79158702  0.74582151  0.75219503     0.88000
H38         H  0.71490578  0.69054877  0.74657675    -0.06100
O39         O  0.69165603  0.73632472  0.74903721    -0.75100
Mg40       Mg  0.77376888  0.71540198  0.71694385     1.58000
H41         H  0.68108415  0.75470618  0.72316173    -0.06100
C42         C  0.74485525  0.80061959  0.66914228     0.93000
O43         O  0.80509299  0.76138196  0.69017077    -0.82400
C44         C  0.81587957  0.74385820  0.69425806     0.93100
O45         O  0.69368629  0.81533610  0.76189506    -0.82400
Mg46       Mg  0.70907978  0.72477766  0.78080330     1.58200
O47         O  0.76099701  0.78891367  0.67591989    -0.80700
O48         O  0.75603417  0.69506487  0.80731424    -0.82400
C49         C  0.63568474  0.02334402  0.74738013     0.86900
C50         C  0.61903285  0.01982487  0.76621814    -0.53400
C51         C  0.60615707  0.00141583  0.76442760     0.09800
C52         C  0.61076108  0.98822882  0.74319226     0.20700
C53         C  0.64852110  0.00163402  0.74588735    -0.54100
C54         C  0.63568647  0.98313407  0.74405647     0.09900
C55         C  0.62065626  0.02350684  0.72696970    -0.53600
C56         C  0.60829659  0.00502502  0.72428291     0.10500
H57         H  0.61719158  0.03111780  0.77987366     0.15000
H58         H  0.59999869  0.97362426  0.74131415     0.00700
H59         H  0.66637429  0.00100941  0.74654405     0.15300
H60         H  0.61970258  0.03698033  0.71528706     0.15100
O61         O  0.76858501  0.28110522  0.76451159    -0.88000
C62         C  0.77609520  0.26442572  0.70030446     0.88100
Mg63       Mg  0.77074321  0.25704784  0.79023568     1.58100
O64         O  0.72185016  0.27623564  0.71539622    -0.87700
O65         O  0.74520292  0.30536995  0.75145819    -0.75000
C66         C  0.70686755  0.17485586  0.75672996     0.93100
O67         O  0.79833318  0.24327458  0.74331713    -0.74900
O68         O  0.72310700  0.17898317  0.76931419    -0.82400
Mg69       Mg  0.79482098  0.28096578  0.74095091     1.58000
C70         C  0.67020112  0.23738912  0.69703202     0.93000
O71         O  0.79470582  0.31893689  0.73814515    -0.80600
H72         H  0.69974116  0.29700049  0.72811430    -0.06000
C73         C  0.73786763  0.21129763  0.71439022     0.88000
O74         O  0.73287129  0.25502788  0.79180728    -0.75100
O75         O  0.77111040  0.27727037  0.71530523    -0.87900
O76         O  0.68601168  0.24828583  0.68848692    -0.80700
C77         C  0.73626600  0.29184160  0.65982215     0.93100
C78         C  0.78637114  0.33391725  0.72598932     0.93000
Mg79       Mg  0.69900714  0.22774521  0.74083445     1.58000
O80         O  0.69844440  0.18962736  0.74432433    -0.80600
O81         O  0.69587528  0.26532955  0.73800732    -0.74900
O82         O  0.74615914  0.30129444  0.67575201    -0.80700
O83         O  0.82096866  0.28366778  0.76732708    -0.82400
O84         O  0.74856730  0.20684170  0.80616842    -0.80700
C85         C  0.70552683  0.28021698  0.72690036     0.87400
O86         O  0.72297740  0.23121538  0.76651726    -0.87900
O87         O  0.72521344  0.22698920  0.71718368    -0.88000
O88         O  0.74822128  0.20246130  0.73030792    -0.75000
Mg89       Mg  0.74589369  0.30178569  0.71369657     1.58000
O90         O  0.72411485  0.27500838  0.66269232    -0.82400
H91         H  0.75238169  0.30211293  0.78396688    -0.06100
O92         O  0.77229251  0.23193152  0.76564475    -0.87700
H93         H  0.79436206  0.21137586  0.75248829    -0.06000
H94         H  0.70121003  0.24562655  0.78654825    -0.06100
C95         C  0.78858241  0.22813598  0.75402121     0.87400
C96         C  0.75553852  0.29647739  0.76737596     0.88000
C97         C  0.71827548  0.24376465  0.78185220     0.88000
H98         H  0.74069152  0.20534469  0.69785255    -0.06100
O99         O  0.76176264  0.25273571  0.69047953    -0.75100
Mg100      Mg  0.74806818  0.20652061  0.76799065     1.58000
H101        H  0.79324101  0.26256556  0.69591197    -0.06100
C102        C  0.82420874  0.27100495  0.78369480     0.93000
O103        O  0.77189158  0.23226575  0.81823946    -0.82400
C104        C  0.75960991  0.21565529  0.82173274     0.93100
O105        O  0.77046523  0.32987277  0.71295704    -0.82400
Mg106      Mg  0.72394527  0.25071878  0.69111680     1.58200
O107        O  0.80870877  0.25935201  0.79177512    -0.80700
O108        O  0.67281859  0.22567473  0.71425109    -0.82400
C109        C  0.88713473  0.49954024  0.77122091     0.86900
C110        C  0.87113392  0.48045380  0.76743337    -0.53400
C111        C  0.85808427  0.48211487  0.74919889     0.09800
C112        C  0.86241209  0.50332820  0.73580497     0.20700
C113        C  0.90019804  0.50131571  0.74929656    -0.54100
C114        C  0.88734529  0.50288761  0.73062978     0.09900
C115        C  0.87319233  0.52055156  0.77029897    -0.53600
C116        C  0.86010051  0.52253628  0.75224589     0.10500
H117        H  0.87077095  0.46618665  0.77822169     0.15000
H118        H  0.85157745  0.50494933  0.72120897     0.00700
H119        H  0.91786276  0.50306359  0.74820312     0.15300
H120        H  0.87455209  0.53364786  0.78239526     0.15100
C121        C  0.74443023  0.86267699  0.47327459     0.86900
C122        C  0.76499981  0.87752901  0.47403268    -0.53400
C123        C  0.76700926  0.89058990  0.49233900     0.09800
C124        C  0.74759114  0.88736211  0.50861866     0.20700
C125        C  0.74503237  0.84962820  0.49476839    -0.54100
C126        C  0.74669877  0.86221342  0.51321503     0.09900
C127        C  0.72560084  0.87945984  0.47621876    -0.53600
C128        C  0.72680627  0.89226440  0.49472434     0.10500
H129        H  0.77705963  0.87778479  0.46087339     0.15000
H130        H  0.74874832  0.89771774  0.52349131     0.00700
H131        H  0.74406140  0.83179123  0.49537757     0.15300
H132        H  0.71260756  0.88187973  0.46431423     0.15100
O133        O  0.71984170  0.73052874  0.23624654    -0.88000
C134        C  0.75475997  0.74117430  0.29208119     0.88100
Mg135      Mg  0.73414095  0.71539324  0.20799894     1.58100
O136        O  0.74532249  0.78874851  0.26080309    -0.87700
O137        O  0.70373789  0.76165215  0.24487056    -0.75000
C138        C  0.83014104  0.76659611  0.19410094     0.81900
O139        O  0.75890184  0.70197045  0.25696221    -0.74900
O140        O  0.82058457  0.74835603  0.19030471    -0.82400
Mg141      Mg  0.72448715  0.71413129  0.26705917     1.58000
C142        C  0.79509959  0.83328288  0.24870708     0.93000
O143        O  0.68943002  0.72352182  0.27853522    -0.80600
H144        H  0.72442430  0.80970373  0.24638291    -0.06000
C145        C  0.80513018  0.76004807  0.25205745     0.88000
O146        O  0.74001287  0.74947815  0.19247029    -0.75100
O147        O  0.73845914  0.74363044  0.28009584    -0.87900
O148        O  0.78529523  0.82402180  0.26483220    -0.80700
C149        C  0.74607434  0.79773812  0.31945329     0.93100
C150        C  0.67994947  0.73859919  0.28963419     0.93000
Mg151      Mg  0.78593718  0.79093871  0.21769383     1.58000
O152        O  0.82074034  0.78187710  0.20500652    -0.80600
O153        O  0.75174312  0.80317677  0.22831290    -0.74900
O154        O  0.73083501  0.78558521  0.31158683    -0.80700
O155        O  0.71109945  0.68202187  0.25385413    -0.82400
O156        O  0.77955822  0.71987213  0.17349556    -0.80700
C157        C  0.73994527  0.80104514  0.24546640     0.87400
O158        O  0.77183259  0.76134277  0.20489809    -0.87900
O159        O  0.79096028  0.77420689  0.24845090    -0.88000
O160        O  0.80716978  0.74317718  0.23989822    -0.75000
Mg161      Mg  0.71881412  0.77282278  0.27780061     1.58000
O162        O  0.76270738  0.80343225  0.30807222    -0.82400
H163        H  0.69564186  0.74346681  0.21802681    -0.06100
O164        O  0.76541374  0.71619462  0.22437116    -0.87700
H165        H  0.78643613  0.69560130  0.23914611    -0.06000
H166        H  0.75408172  0.77823145  0.18288002    -0.06100
C167        C  0.77081700  0.70410195  0.23987418     0.87400
C168        C  0.70587713  0.74488474  0.23255238     0.88000
C169        C  0.75551027  0.76356050  0.19287356     0.88000
H170        H  0.81555577  0.76168583  0.26640969    -0.06100
O171        O  0.77052868  0.75493069  0.29232003    -0.75100
Mg172      Mg  0.79168048  0.73218543  0.20721191     1.58000
H173        H  0.75597387  0.72649517  0.30210026    -0.06100
C174        C  0.71646940  0.67108474  0.23681671     0.93000
O175        O  0.74842412  0.70080084  0.17688469    -0.82400
C176        C  0.76470959  0.70739948  0.16547474     0.93100
O177        O  0.68962094  0.75651901  0.29459377    -0.82400
Mg178      Mg  0.77681027  0.78893681  0.27696692     1.58200
O179        O  0.72657438  0.68006703  0.22069994    -0.80700
O180        O  0.79957954  0.82296372  0.23103053    -0.82400
C181        C  0.73028549  0.61472514  0.00303123     0.86900
C182        C  0.72977315  0.62643360  0.98067374    -0.53400
C183        C  0.74761889  0.63941079  0.97589826     0.09800
C184        C  0.76543268  0.63836023  0.99415713     0.20700
C185        C  0.75183237  0.60149987  0.00292251    -0.54100
C186        C  0.77002117  0.61346941  0.99763255     0.09900
C187        C  0.73553374  0.63275303  0.02007535    -0.53600
C188        C  0.75348492  0.64548820  0.01534596     0.10500
H189        H  0.71612162  0.62421474  0.96933465     0.15000
H190        H  0.78023406  0.64841776  0.99098582     0.00700
H191        H  0.75288615  0.58412496  0.00692028     0.15300
H192        H  0.72731464  0.63416846  0.03584036     0.15100
C193        C  0.52740728  0.74347853  0.35207436     0.86900
C194        C  0.52496879  0.72472495  0.36897189    -0.53400
C195        C  0.50788925  0.72688072  0.38340431     0.09800
C196        C  0.49486472  0.74850888  0.38009470     0.20700
C197        C  0.50467530  0.74568080  0.34127157    -0.54100
C198        C  0.48746694  0.74814444  0.35571140     0.09900
C199        C  0.52949171  0.76392973  0.36690314    -0.53600
C200        C  0.51228974  0.76707149  0.38097397     0.10500
H201        H  0.53604901  0.71080375  0.36989509     0.15000
H202        H  0.48135533  0.75048204  0.39217624     0.00700
H203        H  0.50248543  0.74558224  0.32351971     0.15300
H204        H  0.54298293  0.77559697  0.36597000     0.15100
C205        C  0.13188398  0.98084695  0.75762552     0.86900
C206        C  0.11654939  0.98216758  0.73765231    -0.53400
C207        C  0.10497385  0.00131086  0.73511913     0.09800
C208        C  0.11063926  0.01833060  0.75334137     0.20700
C209        C  0.14705730  0.00098882  0.75537796    -0.54100
C210        C  0.13618937  0.02052231  0.75293168     0.09900
C211        C  0.11764026  0.98734431  0.77753638    -0.53600
C212        C  0.10589453  0.00631571  0.77521986     0.10500
H213        H  0.11557574  0.96876248  0.72588417     0.15000
H214        H  0.10170061  0.03411054  0.75213129     0.00700
H215        H  0.16488667  0.00003349  0.75628906     0.15300
H216        H  0.11870329  0.97970789  0.79357531     0.15100
C217        C  0.74781751  0.14088605  0.97130598     0.86900
C218        C  0.72876262  0.12413084  0.97066435    -0.53400
C219        C  0.72787190  0.10946290  0.98787785     0.09800
C220        C  0.74671688  0.11360072  0.00484024     0.20700
C221        C  0.74558195  0.15229063  0.99350625    -0.54100
C222        C  0.74489842  0.13842215  0.01110359     0.09900
C223        C  0.76816225  0.12589985  0.97345837    -0.53600
C224        C  0.76804032  0.11181870  0.99100596     0.10500
H225        H  0.71699122  0.12365855  0.95731395     0.15000
H226        H  0.74693086  0.10225683  0.01902412     0.00700
H227        H  0.74476063  0.17006085  0.99522503     0.15300
H228        H  0.78158752  0.12596015  0.96169588     0.15100
C229        C  0.36401864  0.51938487  0.74724489     0.86900
C230        C  0.37994497  0.51501289  0.72793111    -0.53400
C231        C  0.39247984  0.49641148  0.72992422     0.09800
C232        C  0.38753906  0.48330575  0.75106039     0.20700
C233        C  0.35028889  0.49803643  0.74765602    -0.54100
C234        C  0.36232874  0.47933791  0.75040907     0.09900
C235        C  0.37827120  0.51818920  0.76807121    -0.53600
C236        C  0.39125106  0.49979700  0.77017781     0.10500
H237        H  0.38060666  0.52519796  0.71325128     0.15000
H238        H  0.39749225  0.46818953  0.75188926     0.00700
H239        H  0.33262025  0.49728837  0.74531501     0.15300
H240        H  0.37758649  0.53102285  0.78046319     0.15100
C241        C  0.72728360  0.39220126  0.48939769     0.86900
C242        C  0.72650016  0.37519237  0.50809582    -0.53400
C243        C  0.74511478  0.36299060  0.51044362     0.09800
C244        C  0.76264466  0.36750512  0.49257656     0.20700
C245        C  0.74868047  0.40510348  0.49315841    -0.54100
C246        C  0.76731767  0.39241882  0.49453977     0.09900
C247        C  0.73175683  0.37766781  0.46916709    -0.53600
C248        C  0.75019029  0.36490288  0.47052251     0.10500
H249        H  0.71274572  0.37330370  0.51933250     0.15000
H250        H  0.77740922  0.35685305  0.49380199     0.00700
H251        H  0.74898453  0.42290275  0.49464298     0.15300
H252        H  0.72076118  0.37648228  0.45515717     0.15100
C253        C  0.61142561  0.50772437  0.27111398     0.86900
C254        C  0.62849607  0.52628827  0.26872736    -0.53400
C255        C  0.64131046  0.52492573  0.25031337     0.09800
C256        C  0.63702221  0.50406134  0.23643649     0.20700
C257        C  0.59911113  0.50742488  0.24904091    -0.54100
C258        C  0.61222856  0.50519692  0.23082062     0.09900
C259        C  0.62614569  0.48711791  0.27100818    -0.53600
C260        C  0.63915277  0.48480391  0.25286853     0.10500
H261        H  0.63065084  0.53959791  0.28038002     0.15000
H262        H  0.64800428  0.50231873  0.22195904     0.00700
H263        H  0.58133268  0.50895050  0.24804312     0.15300
H264        H  0.62666475  0.47530900  0.28441289     0.15100
C265        C  0.26797982  0.60816624  0.50268488     0.86900
C266        C  0.26391986  0.62428636  0.52181049    -0.53400
C267        C  0.24604431  0.63774215  0.51944667     0.09800
C268        C  0.23401066  0.63427419  0.49729642     0.20700
C269        C  0.24626761  0.59595822  0.49959625    -0.54100
C270        C  0.22852027  0.60930165  0.49667986     0.09900
C271        C  0.26958474  0.62368967  0.48268741    -0.53600
C272        C  0.25211541  0.63765509  0.47954676     0.10500
H273        H  0.27458262  0.62566922  0.53599904     0.15000
H274        H  0.21967016  0.64520319  0.49551196     0.00700
H275        H  0.24501125  0.57812946  0.49959656     0.15300
H276        H  0.28363405  0.62347005  0.47170807     0.15100
C277        C  0.00178899  0.73099431  0.10765562     0.86900
C278        C  0.98224084  0.73507962  0.12316147    -0.53400
C279        C  0.98371300  0.75358603  0.13581679     0.09800
C280        C  0.00547880  0.76634283  0.13228049     0.20700
C281        C  0.00445067  0.75251470  0.09458548    -0.54100
C282        C  0.00611751  0.77115047  0.10725648     0.09900
C283        C  0.02133495  0.73057257  0.12378585    -0.53600
C284        C  0.02389710  0.74915283  0.13596682     0.10500
H285        H  0.96820142  0.72411321  0.12428601     0.15000
H286        H  0.00693254  0.78106980  0.14293479     0.00700
H287        H  0.00476600  0.75291338  0.07670880     0.15300
H288        H  0.03259519  0.71688678  0.12569440     0.15100
O289        O  0.25862480  0.72148939  0.27076896    -0.88000
C290        C  0.20327141  0.75861325  0.26336832     0.88100
Mg291      Mg  0.28734139  0.73333316  0.28711383     1.58100
O292        O  0.23476728  0.75301291  0.21527486    -0.87700
O293        O  0.24951071  0.70876412  0.23820951    -0.75000
C294        C  0.30071223  0.83532607  0.24749704     0.93100
O295        O  0.23921470  0.75773004  0.30378881    -0.74900
O296        O  0.30573920  0.82379159  0.26429003    -0.82400
Mg297      Mg  0.22804665  0.72532382  0.28785991     1.58000
C298        C  0.24887269  0.80584974  0.17547562     0.93000
O299        O  0.21520073  0.69208919  0.27526637    -0.80600
H300        H  0.24977089  0.73404768  0.19294242    -0.06000
C301        C  0.24365801  0.80866012  0.25064657     0.88000
O302        O  0.30272861  0.74310322  0.25390102    -0.75100
O303        O  0.21538046  0.74266133  0.25970869    -0.87900
O304        O  0.23251760  0.79514282  0.18328121    -0.80700
C305        C  0.17565095  0.75527359  0.20572111     0.93100
C306        C  0.20384943  0.68433916  0.25941670     0.93000
Mg307      Mg  0.27824127  0.79359394  0.21805825     1.58000
O308        O  0.28985869  0.82747584  0.23130010    -0.80600
O309        O  0.26769671  0.76065926  0.20236258    -0.74900
O310        O  0.18316881  0.73942261  0.21731446    -0.80700
O311        O  0.24102890  0.70782594  0.31824680    -0.82400
O312        O  0.32310409  0.77896982  0.28881439    -0.80700
C313        C  0.25047036  0.74872559  0.20300280     0.87400
O314        O  0.29107690  0.77638593  0.24605031    -0.87900
O315        O  0.24723888  0.79666617  0.23456034    -0.88000
O316        O  0.25611974  0.80874952  0.26752029    -0.75000
Mg317      Mg  0.21699765  0.72565401  0.22871861     1.58000
O318        O  0.18763536  0.77178049  0.20078285    -0.82400
H319        H  0.27610862  0.69821001  0.25547903    -0.06100
O320        O  0.27194294  0.76487837  0.29035273    -0.87700
H321        H  0.25795230  0.78364997  0.31347013    -0.06000
H322        H  0.31272402  0.76042492  0.22712685    -0.06100
C323        C  0.25668959  0.76921347  0.30311299     0.87400
C324        C  0.26189043  0.70890165  0.25510202     0.88000
C325        C  0.30275416  0.76024132  0.24187156     0.88000
H326        H  0.22913572  0.81893408  0.25061802    -0.06100
O327        O  0.20280003  0.77528599  0.25068382    -0.75100
Mg328      Mg  0.28912291  0.79272193  0.27724901     1.58000
H329        H  0.19318929  0.75860165  0.27803526    -0.06100
C330        C  0.25863467  0.71062370  0.32927893     0.93000
O331        O  0.31858327  0.74532078  0.30283229    -0.82400
C332        C  0.33043396  0.76221405  0.29927036     0.93100
O333        O  0.19957055  0.69560386  0.24225900    -0.82400
Mg334      Mg  0.21887773  0.78435085  0.21747464     1.58200
O335        O  0.27506197  0.72123793  0.32150526    -0.80700
O336        O  0.26568401  0.81041273  0.18713709    -0.82400
C337        C  0.24874607  0.85531321  0.97625932     0.86900
C338        C  0.26855260  0.87111094  0.97760581    -0.53400
C339        C  0.26906574  0.88467360  0.99554006     0.09800
C340        C  0.24887683  0.88141700  0.01064243     0.20700
C341        C  0.24864884  0.84305937  0.99820284    -0.54100
C342        C  0.24866079  0.85644381  0.01618604     0.09900
C343        C  0.22896662  0.87121688  0.97755021    -0.53600
C344        C  0.22879184  0.88514989  0.99535315     0.10500
H345        H  0.28124240  0.87179707  0.96512735     0.15000
H346        H  0.24915301  0.89236957  0.02506872     0.00700
H347        H  0.24864026  0.82523251  0.99945087     0.15300
H348        H  0.21625495  0.87177615  0.96505162     0.15100
C349        C  0.47416084  0.24768054  0.64131512     0.86900
C350        C  0.47277321  0.22840243  0.62495200    -0.53400
C351        C  0.48943783  0.22729370  0.60987878     0.09800
C352        C  0.50617686  0.24643719  0.61220401     0.20700
C353        C  0.49731009  0.24610846  0.65141181    -0.54100
C354        C  0.51416530  0.24534040  0.63638289     0.09900
C355        C  0.47508510  0.26770068  0.62582307    -0.53600
C356        C  0.49210977  0.26759459  0.61124735     0.10500
H357        H  0.45945352  0.21651711  0.62500255     0.15000
H358        H  0.51959607  0.24600172  0.59983416     0.00700
H359        H  0.50010063  0.24574893  0.66907874     0.15300
H360        H  0.46338523  0.28114807  0.62604026     0.15100
O361        O  0.24346159  0.28847822  0.77785597    -0.88000
C362        C  0.29805375  0.25099662  0.77120263     0.88100
Mg363      Mg  0.21470502  0.27653671  0.79429559     1.58100
O364        O  0.26632085  0.25660120  0.72336636    -0.87700
O365        O  0.25257314  0.30144748  0.74544192    -0.75000
C366        C  0.19750581  0.17586034  0.75390885     0.93100
O367        O  0.26272398  0.25206877  0.81043436    -0.74900
O368        O  0.19385813  0.18704918  0.77126859    -0.82400
Mg369      Mg  0.27420045  0.28475116  0.79489028     1.58000
C370        C  0.25234851  0.20415326  0.68387442     0.93000
O371        O  0.28772536  0.31843638  0.78189065    -0.80600
H372        H  0.25221477  0.27577730  0.70059750    -0.06000
C373        C  0.25596822  0.20012727  0.75793987     0.88000
O374        O  0.19868049  0.26751817  0.76121779    -0.75100
O375        O  0.28669642  0.26739124  0.76705883    -0.87900
O376        O  0.26843728  0.21454616  0.69237044    -0.80700
C377        C  0.32465580  0.25267059  0.71344318     0.93100
C378        C  0.29922215  0.32543749  0.76566597     0.93000
Mg379      Mg  0.22211924  0.21698529  0.72530511     1.58000
O380        O  0.20856635  0.18373501  0.73786054    -0.80600
O381        O  0.23358128  0.24959339  0.70977213    -0.74900
O382        O  0.31790664  0.26928091  0.72433904    -0.80700
O383        O  0.26143238  0.30148951  0.82571863    -0.82400
O384        O  0.17834469  0.23182020  0.79547960    -0.80700
C385        C  0.25100588  0.26116195  0.71070896     0.87400
O386        O  0.20967458  0.23408878  0.75321896    -0.87900
O387        O  0.25268890  0.21310679  0.74258958    -0.88000
O388        O  0.24379595  0.19985926  0.77493798    -0.75000
Mg389      Mg  0.28467859  0.28384199  0.73590307     1.58000
O390        O  0.31243894  0.23615985  0.70960558    -0.82400
H391        H  0.22622103  0.31222274  0.76291701    -0.06100
O392        O  0.22987730  0.24479135  0.79712559    -0.87700
H393        H  0.24434791  0.22576185  0.81978314    -0.06000
H394        H  0.18810505  0.25047690  0.73450429    -0.06100
C395        C  0.24536063  0.24036348  0.80964417     0.87400
C396        C  0.24026222  0.30129546  0.76235233     0.88000
C397        C  0.19822436  0.25043467  0.74916462     0.88000
H398        H  0.27001256  0.18922354  0.75719694    -0.06100
O399        O  0.29749682  0.23383748  0.75925327    -0.75100
Mg400      Mg  0.21165405  0.21732383  0.78433317     1.58000
H401        H  0.30818816  0.25098390  0.78586583    -0.06100
C402        C  0.24395689  0.29767760  0.83667340     0.93000
O403        O  0.18346045  0.26476760  0.81066373    -0.82400
C404        C  0.17121654  0.24836761  0.80622813     0.93100
O405        O  0.30279981  0.31364318  0.74873634    -0.82400
Mg406      Mg  0.28137609  0.22488397  0.72619430     1.58200
O407        O  0.22763079  0.28755698  0.82819381    -0.80700
O408        O  0.23496865  0.19992802  0.69478332    -0.82400
C409        C  0.97267083  0.25616585  0.85969289     0.86900
C410        C  0.97415474  0.27380060  0.87776917    -0.53400
C411        C  0.99229220  0.27216709  0.89093926     0.09800
C412        C  0.00675663  0.25189980  0.88594971     0.20700
C413        C  0.99506504  0.25720421  0.84799615    -0.54100
C414        C  0.01310449  0.25453631  0.86142128     0.09900
C415        C  0.97299030  0.23471504  0.87323121    -0.53600
C416        C  0.99081241  0.23223706  0.88663209     0.10500
H417        H  0.96249086  0.28716240  0.87966287     0.15000
H418        H  0.02069111  0.24967120  0.89749783     0.00700
H419        H  0.99633219  0.26030769  0.83044239     0.15300
H420        H  0.95980140  0.22269035  0.87314482     0.15100
O421        O  0.74105508  0.21711208  0.22281223    -0.88000
C422        C  0.79799090  0.25157359  0.23023107     0.88100
Mg423      Mg  0.71295847  0.23056040  0.20625771     1.58100
O424        O  0.76683447  0.24726246  0.27868024    -0.87700
O425        O  0.74963983  0.20396094  0.25537214    -0.75000
C426        C  0.70204032  0.33125226  0.24938662     0.93100
O427        O  0.76236227  0.25279421  0.19078573    -0.74900
O428        O  0.69758366  0.32042730  0.23197785    -0.82400
Mg429      Mg  0.77199017  0.21943745  0.20616872     1.58000
C430        C  0.75651161  0.30069483  0.31882828     0.93000
O431        O  0.78314782  0.18504903  0.21882685    -0.80600
H432        H  0.75211212  0.22861203  0.30147806    -0.06000
C433        C  0.75904996  0.30422224  0.24425876     0.88000
O434        O  0.69784497  0.24023727  0.23972270    -0.75100
O435        O  0.78563379  0.23589149  0.23427536    -0.87900
O436        O  0.77224828  0.29004400  0.30994779    -0.80700
C437        C  0.82529227  0.24700760  0.28851086     0.93100
C438        C  0.79433573  0.17691282  0.23469401     0.93000
Mg439      Mg  0.72468748  0.28876369  0.27736615     1.58000
O440        O  0.71278527  0.32287364  0.26539081    -0.80600
O441        O  0.73454633  0.25555082  0.29248558    -0.74900
O442        O  0.81709816  0.23089239  0.27778983    -0.80700
O443        O  0.75827105  0.20313664  0.17554464    -0.82400
O444        O  0.67883179  0.27679159  0.20726634    -0.80700
C445        C  0.75146444  0.24331575  0.29144694     0.87400
O446        O  0.71123490  0.27249834  0.24894907    -0.87900
O447        O  0.75537838  0.29162925  0.25987733    -0.88000
O448        O  0.74663530  0.30496089  0.22739026    -0.75000
Mg449      Mg  0.78300517  0.21903930  0.26527398     1.58000
O450        O  0.81465182  0.26473561  0.29171019    -0.82400
H451        H  0.72238976  0.19483857  0.23828302    -0.06100
O452        O  0.72982589  0.26147343  0.20393652    -0.87700
H453        H  0.74534331  0.28004882  0.18158959    -0.06000
H454        H  0.68882209  0.25682042  0.26728101    -0.06100
C455        C  0.74558077  0.26529896  0.19157469     0.87400
C456        C  0.73717115  0.20476775  0.23855508     0.88000
C457        C  0.69878889  0.25676646  0.25253338     0.88000
H458        H  0.77368616  0.31435789  0.24463358    -0.06100
O459        O  0.79873851  0.26851991  0.24245485    -0.75100
Mg460      Mg  0.71335848  0.28952610  0.21798334     1.58000
H461        H  0.80788584  0.25117683  0.21544338    -0.06100
C462        C  0.74097506  0.20663685  0.16421278     0.93000
O463        O  0.68207570  0.24437811  0.19040197    -0.82400
C464        C  0.67059057  0.26093223  0.19617835     0.93100
O465        O  0.79912384  0.18830303  0.25162685    -0.82400
Mg466      Mg  0.78380059  0.27823079  0.27579178     1.58200
O467        O  0.72503828  0.21820426  0.17167547    -0.80700
O468        O  0.73869096  0.30469220  0.30845363    -0.82400
C469        C  0.88765267  0.00720398  0.27257765     0.86900
C470        C  0.86897692  0.99036548  0.27427893    -0.53400
C471        C  0.85713621  0.98756547  0.25558877     0.09800
C472        C  0.86338290  0.00411493  0.23703064     0.20700
C473        C  0.90042271  0.00079317  0.25161017    -0.54100
C474        C  0.88812631  0.00012475  0.23249770     0.09900
C475        C  0.87516614  0.02843376  0.26652623    -0.53600
C476        C  0.86279020  0.02705379  0.24780278     0.10500
H477        H  0.86592151  0.98023624  0.28867668     0.15000
H478        H  0.85242921  0.00363030  0.22253961     0.00700
H479        H  0.91779242  0.99684449  0.25230494     0.15300
H480        H  0.87545218  0.04332886  0.27633474     0.15100
C481        C  0.01625309  0.25395857  0.35946967     0.86900
C482        C  0.01722894  0.23458008  0.37566749    -0.53400
C483        C  0.99948354  0.23242626  0.38922922     0.09800
C484        C  0.98192498  0.25048489  0.38548883     0.20700
C485        C  0.99430207  0.25137653  0.34727856    -0.54100
C486        C  0.97614840  0.24908431  0.36058779     0.09900
C487        C  0.01287555  0.27367857  0.37490336    -0.53600
C488        C  0.99465799  0.27242768  0.38784354     0.10500
H489        H  0.03117549  0.22355575  0.37690688     0.15000
H490        H  0.96780895  0.24894710  0.39689791     0.00700
H491        H  0.99332054  0.25163801  0.32942703     0.15300
H492        H  0.02371871  0.28784808  0.37558970     0.15100
O493        O  0.27027860  0.22922652  0.23379449    -0.88000
C494        C  0.27548560  0.24717175  0.29818854     0.88100
Mg495      Mg  0.27171211  0.25224230  0.20726173     1.58100
O496        O  0.22215314  0.23402224  0.28062626    -0.87700
O497        O  0.24770116  0.20412256  0.24641218    -0.75000
C498        C  0.20690859  0.33515322  0.23848227     0.93100
O499        O  0.29831067  0.26852611  0.25441970    -0.74900
O500        O  0.22288205  0.33118705  0.22552214    -0.82400
Mg501      Mg  0.29590401  0.23090755  0.25798051     1.58000
C502        C  0.16930481  0.27232761  0.29632326     0.93000
O503        O  0.29699498  0.19308879  0.26212843    -0.80600
H504        H  0.20058758  0.21294502  0.26737986    -0.06000
C505        C  0.23752774  0.29927041  0.28136800     0.88000
O506        O  0.23389034  0.25345704  0.20565870    -0.75100
O507        O  0.27129087  0.23425163  0.28299809    -0.87900
O508        O  0.18471157  0.26112908  0.30520235    -0.80700
C509        C  0.23365830  0.21884278  0.33715366     0.93100
C510        C  0.28903692  0.17807822  0.27451204     0.93000
Mg511      Mg  0.19934002  0.28234789  0.25450584     1.58000
O512        O  0.19881209  0.32032517  0.25098029    -0.80600
O513        O  0.19638056  0.24462705  0.25759389    -0.74900
O514        O  0.24417941  0.20958524  0.32155819    -0.80700
O515        O  0.32283512  0.22846608  0.23212170    -0.82400
O516        O  0.24872363  0.30162839  0.18986307    -0.80700
C517        C  0.20613185  0.22980617  0.26873944     0.87400
O518        O  0.22350049  0.27851836  0.22947747    -0.87900
O519        O  0.22507095  0.28338474  0.27855298    -0.88000
O520        O  0.24786052  0.30820522  0.26546949    -0.75000
Mg521      Mg  0.24661017  0.20889753  0.28389511     1.58000
O522        O  0.22194285  0.23588744  0.33377663    -0.82400
H523        H  0.25626437  0.20678249  0.21421787    -0.06100
O524        O  0.27274445  0.27851252  0.23086405    -0.87700
H525        H  0.29407536  0.29995481  0.24389694    -0.06000
H526        H  0.20210605  0.26274277  0.21004197    -0.06100
C527        C  0.28865059  0.28302288  0.24279743     0.87400
C528        C  0.25829450  0.21306502  0.23075711     0.88000
C529        C  0.21910979  0.26511666  0.21477469     0.88000
H530        H  0.24010462  0.30540511  0.29789486    -0.06100
O531        O  0.26058280  0.25860125  0.30740973    -0.75100
Mg532      Mg  0.24816252  0.30353442  0.22775950     1.58000
H533        H  0.29241625  0.24930302  0.30330828    -0.06100
C534        C  0.32547904  0.23962583  0.21456608     0.93000
O535        O  0.27172715  0.27559748  0.17810105    -0.82400
C536        C  0.25908672  0.29188738  0.17443090     0.93100
O537        O  0.27234611  0.18177316  0.28664159    -0.82400
Mg538      Mg  0.22280628  0.25983543  0.30484986     1.58200
O539        O  0.30972692  0.25026647  0.20558864    -0.80700
O540        O  0.17290488  0.28517975  0.28020971    -0.82400
C541        C  0.27062830  0.39396092  0.00406237     0.86900
C542        C  0.26840241  0.37657687  0.98578795    -0.53400
C543        C  0.25032552  0.36334099  0.98726135     0.09800
C544        C  0.23608373  0.36820093  0.00769226     0.20700
C545        C  0.24859652  0.40620784  0.00426671    -0.54100
C546        C  0.23044174  0.39293127  0.00605335     0.09900
C547        C  0.27036190  0.37973965  0.02508731    -0.53600
C548        C  0.25217119  0.36669681  0.02728323     0.10500
H549        H  0.28041325  0.37434585  0.97280241     0.15000
H550        H  0.22158835  0.35720631  0.00922512     0.00700
H551        H  0.24750394  0.42401209  0.00324752     0.15300
H552        H  0.28337829  0.37975947  0.03733676     0.15100
C553        C  0.38501680  0.00867899  0.22326341     0.86900
C554        C  0.37351263  0.03029768  0.22912882    -0.53400
C555        C  0.36214236  0.03022174  0.24860596     0.09800
C556        C  0.36425953  0.00813935  0.26117376     0.20700
C557        C  0.39988774  0.00350412  0.24314900    -0.54100
C558        C  0.38934769  0.00376335  0.26290808     0.09900
C559        C  0.36708157  0.99073276  0.22535595    -0.53600
C560        C  0.35590203  0.99037857  0.24498958     0.10500
H561        H  0.37431270  0.04461650  0.21844537     0.15000
H562        H  0.35546741  0.00811323  0.27706361     0.00700
H563        H  0.41722153  0.99940335  0.24192291     0.15300
H564        H  0.36467299  0.97799735  0.21308063     0.15100
O565        O  0.02383373  0.02768987  0.47920450    -0.88000
C566        C  0.00992349  0.03346399  0.54419758     0.88100
Mg567      Mg  0.99866262  0.03007260  0.45453912     1.58100
O568        O  0.02081135  0.97970607  0.52703567    -0.87700
O569        O  0.04883784  0.00419148  0.49059837    -0.75000
C570        C  0.91617078  0.96686104  0.49121831     0.93100
O571        O  0.98687566  0.05693967  0.50260758    -0.74900
O572        O  0.91924316  0.98366193  0.47900031    -0.82400
Mg573      Mg  0.02459019  0.05347306  0.50330386     1.58000
C574        C  0.98132700  0.92762240  0.54474044     0.93000
O575        O  0.06278969  0.05361454  0.50456283    -0.80600
H576        H  0.04028495  0.95810544  0.51168321    -0.06000
C577        C  0.95590042  0.99651380  0.53168868     0.88000
O578        O  0.99605027  0.99243403  0.45263704    -0.75100
O579        O  0.02217432  0.02902750  0.52852034    -0.87900
O580        O  0.99330582  0.94256769  0.55352965    -0.80700
C581        C  0.03825940  0.99277118  0.58277566     0.93100
C582        C  0.07844774  0.04503798  0.51568930     0.93000
Mg583      Mg  0.97010494  0.95840041  0.50317091     1.58000
O584        O  0.93198442  0.95815492  0.50198655    -0.80600
O585        O  0.00792547  0.95504913  0.50388857    -0.74900
O586        O  0.04744179  0.00302457  0.56684095    -0.80700
O587        O  0.02558087  0.08045062  0.47746966    -0.82400
O588        O  0.94634022  0.00958867  0.44084270    -0.80700
C589        C  0.02371961  0.96400091  0.51438029     0.87400
O590        O  0.97234916  0.98274159  0.47813458    -0.87900
O591        O  0.97116202  0.98369104  0.52755565    -0.88000
O592        O  0.94624862  0.00745515  0.51666453    -0.75000
Mg593      Mg  0.04675725  0.00378179  0.52851555     1.58000
O594        O  0.02158962  0.98035184  0.57984277    -0.82400
H595        H  0.04423711  0.01230049  0.45846854    -0.06100
O596        O  0.97418128  0.03173085  0.48005283    -0.87700
H597        H  0.95457335  0.05368735  0.49469425    -0.06000
H598        H  0.98564408  0.96104656  0.45729672    -0.06100
C599        C  0.97116308  0.04774613  0.49225233     0.87400
C600        C  0.03922130  0.01490128  0.47535448     0.88000
C601        C  0.98438220  0.97804536  0.46238053     0.88000
H602        H  0.95107765  0.99898021  0.54864640    -0.06100
O603        O  0.99864088  0.01879615  0.55403933    -0.75100
Mg604      Mg  0.94790028  0.00816157  0.47883379     1.58000
H605        H  0.00825397  0.05043099  0.54925169    -0.06100
C606        C  0.01282602  0.08351627  0.46110257     0.93000
O607        O  0.97296757  0.03122095  0.42770476    -0.82400
C608        C  0.95558849  0.01983750  0.42499407     0.93100
O609        O  0.07521331  0.02862472  0.52840479    -0.82400
Mg610      Mg  0.99616244  0.98100710  0.55233813     1.58200
O611        O  0.00143798  0.06795710  0.45279537    -0.80700
O612        O  0.96862590  0.93170509  0.52862147    -0.82400
O613        O  0.02186195  0.96785041  0.99743126    -0.88000
C614        C  0.00760206  0.00280798  0.05292888     0.88100
Mg615      Mg  0.04017368  0.98210334  0.97088532     1.58100
O616        O  0.96288940  0.99650028  0.01703764    -0.87700
O617        O  0.98896413  0.95388039  0.00305638    -0.75000
C618        C  0.99681029  0.08161747  0.95668831     0.93100
O619        O  0.05171799  0.00412738  0.02187835    -0.74900
O620        O  0.01506003  0.07148685  0.95553193    -0.82400
Mg621      Mg  0.03582021  0.97077042  0.02974421     1.58000
C622        C  0.92158802  0.04839797  0.00125718     0.93000
O623        O  0.02282110  0.93642516  0.03988569    -0.80600
H624        H  0.94252332  0.97706487  0.99992667    -0.06000
C625        C  0.99549101  0.05412808  0.01428863     0.88000
O626        O  0.00806329  0.99109413  0.95302760    -0.75100
O627        O  0.00591661  0.98692028  0.04027098    -0.87900
O628        O  0.92831896  0.03726990  0.01782672    -0.80700
C629        C  0.94808525  0.99660151  0.07499458     0.93100
C630        C  0.00613327  0.92812656  0.04960371     0.93000
Mg631      Mg  0.96719113  0.03847650  0.97557582     1.58000
O632        O  0.97956223  0.07284264  0.96486402    -0.80600
O633        O  0.95204409  0.00465901  0.98360214    -0.74900
O634        O  0.96134610  0.98164672  0.06849759    -0.80700
O635        O  0.06820996  0.95501781  0.01863053    -0.82400
O636        O  0.04200773  0.02953459  0.93929748    -0.80700
C637        C  0.95196426  0.99217160  0.00040294     0.87400
O638        O  0.99728870  0.02307936  0.96585907    -0.87900
O639        O  0.98043605  0.04177435  0.00822930    -0.88000
O640        O  0.01391373  0.05495484  0.00438590    -0.75000
Mg641      Mg  0.97580025  0.96916336  0.03519005     1.58000
O642        O  0.94264093  0.01241703  0.06240782    -0.82400
H643        H  0.00883620  0.94490739  0.97773173    -0.06100
O644        O  0.04015801  0.01258986  0.98878057    -0.87700
H645        H  0.06171912  0.03131496  0.00520008    -0.06000
H646        H  0.98138724  0.00758210  0.94156375    -0.06100
C647        C  0.05177612  0.01652887  0.00503650     0.87400
C648        C  0.00688578  0.95501296  0.99226061     0.88000
C649        C  0.99513596  0.00752941  0.95288463     0.88000
H650        H  0.99323142  0.06382490  0.02901926    -0.06100
O651        O  0.99391426  0.01869165  0.05268764    -0.75100
Mg652      Mg  0.02740574  0.04071301  0.97213673     1.58000
H653        H  0.02133011  0.00339935  0.06428452    -0.06100
C654        C  0.08056962  0.95967920  0.00228637     0.93000
O655        O  0.05801402  0.99668966  0.94114668    -0.82400
C656        C  0.05335646  0.01423048  0.93060076     0.93100
O657        O  0.98857552  0.93905542  0.05278411    -0.82400
Mg658      Mg  0.96168523  0.02712369  0.03402981     1.58200
O659        O  0.07366398  0.97100533  0.98592888    -0.80700
O660        O  0.93437394  0.05356004  0.98544792    -0.82400
O661        O  0.47774176  0.03497613  0.48739805    -0.88000
C662        C  0.48378088  0.00039985  0.54382021     0.88100
Mg663      Mg  0.46096789  0.02120476  0.45940337     1.58100
O664        O  0.53246534  0.00500754  0.51340816    -0.87700
O665        O  0.50989907  0.04869581  0.49659311    -0.75000
C666        C  0.50346243  0.92040474  0.44732854     0.93100
O667        O  0.44511459  0.99970304  0.50840190    -0.74900
O668        O  0.48606213  0.93142121  0.44328154    -0.82400
Mg669      Mg  0.46045504  0.03317033  0.51798044     1.58000
C670        C  0.57330565  0.95216412  0.50221004     0.93000
O671        O  0.47290194  0.06766889  0.52943204    -0.80600
H672        H  0.55471410  0.02388062  0.49813728    -0.06000
C673        C  0.49876262  0.94743649  0.50491142     0.88000
O674        O  0.49421571  0.01173971  0.44382423    -0.75100
O675        O  0.48801676  0.01647061  0.53199979    -0.87900
O676        O  0.56412994  0.96237055  0.51812519    -0.80700
C677        C  0.53996554  0.00376960  0.57264421     0.93100
C678        C  0.48841732  0.07561445  0.54122696     0.93000
Mg679      Mg  0.53140485  0.96320482  0.47054904     1.58000
O680        O  0.51951084  0.92865574  0.45824849    -0.80600
O681        O  0.54590128  0.99668739  0.48085474    -0.74900
O682        O  0.52936906  0.02004885  0.56458388    -0.80700
O683        O  0.43035677  0.04968198  0.50371292    -0.82400
O684        O  0.46050247  0.97472153  0.42529088    -0.80700
C685        C  0.54489122  0.00902583  0.49774646     0.87400
O686        O  0.50306519  0.97921321  0.45690207    -0.87900
O687        O  0.51407392  0.96034991  0.50122540    -0.88000
O688        O  0.48188997  0.94649316  0.49256520    -0.75000
Mg689      Mg  0.51896479  0.03316600  0.53011277     1.58000
O690        O  0.54486824  0.98704312  0.56104680    -0.82400
H691        H  0.49318035  0.05750247  0.46896797    -0.06100
O692        O  0.45886959  0.99033493  0.47631108    -0.87700
H693        H  0.43634313  0.97200084  0.49186407    -0.06000
H694        H  0.52134978  0.99474081  0.43434311    -0.06100
C695        C  0.44629691  0.98677543  0.49195772     0.87400
C696        C  0.49336115  0.04756018  0.48375018     0.88000
C697        C  0.50672260  0.99496224  0.44447350     0.88000
H698        H  0.49941474  0.93719561  0.51947471    -0.06100
O699        O  0.49600187  0.98341148  0.54431512    -0.75100
Mg700      Mg  0.47221771  0.96217294  0.45952253     1.58000
H701        H  0.46882865  0.00050723  0.55346933    -0.06100
C702        C  0.41859382  0.04394625  0.48735666     0.93000
O703        O  0.44451369  0.00752910  0.42886585    -0.82400
C704        C  0.44909413  0.99056955  0.41749933     0.93100
O705        O  0.50528249  0.06423643  0.54638563    -0.82400
Mg706      Mg  0.52964148  0.97381089  0.52977436     1.58200
O707        O  0.42645466  0.03198264  0.47199164    -0.80700
O708        O  0.56280404  0.94794220  0.48450395    -0.82400
C709        C  0.25223406  0.14324471  0.52785618     0.86900
C710        C  0.27191147  0.12843271  0.52286068    -0.53400
C711        C  0.27083956  0.11686794  0.50365548     0.09800
C712        C  0.24853581  0.12000762  0.49156340     0.20700
C713        C  0.24874739  0.15703921  0.50657293    -0.54100
C714        C  0.24741570  0.14501512  0.48743881     0.09900
C715        C  0.23226429  0.12802510  0.52744527    -0.53600
C716        C  0.23002894  0.11574660  0.50891338     0.10500
H717        H  0.28611520  0.12772875  0.53372259     0.15000
H718        H  0.24716788  0.11013364  0.47637626     0.00700
H719        H  0.24549584  0.17445364  0.50615451     0.15300
H720        H  0.21991935  0.12794526  0.54040649     0.15100
O721        O  0.47459079  0.96739722  0.97109648    -0.88000
C722        C  0.48991806  0.96509323  0.03616452     0.88100
Mg723      Mg  0.49911366  0.96550931  0.94609792     1.58100
O724        O  0.47686542  0.01774705  0.01646231    -0.87700
O725        O  0.44910482  0.99051367  0.98186996    -0.75000
C726        C  0.57969919  0.03353346  0.97945717     0.93100
O727        O  0.51319863  0.94091633  0.99479727    -0.74900
O728        O  0.57625035  0.01701852  0.96696826    -0.82400
Mg729      Mg  0.47529309  0.94265605  0.99620085     1.58000
C730        C  0.51300116  0.07228549  0.03358020     0.93000
O731        O  0.43681596  0.94177631  0.99777164    -0.80600
H732        H  0.45579856  0.03831297  0.00170028    -0.06000
C733        C  0.54211049  0.00398552  0.02102816     0.88000
O734        O  0.49988469  0.00338618  0.94349697    -0.75100
O735        O  0.47730014  0.96830099  0.02045703    -0.87900
O736        O  0.50225939  0.05628708  0.04186592    -0.80700
C737        C  0.45925117  0.00827666  0.07246051     0.93100
C738        C  0.42141183  0.95076859  0.00895649     0.93000
Mg739      Mg  0.52572062  0.04139580  0.99224286     1.58000
O740        O  0.56411618  0.04232998  0.99053822    -0.80600
O741        O  0.48779240  0.04333743  0.99337926    -0.74900
O742        O  0.45090254  0.99590884  0.05766950    -0.80700
O743        O  0.47507801  0.91443427  0.97131428    -0.82400
O744        O  0.54854498  0.98968683  0.92975867    -0.80700
C745        C  0.47274132  0.03335141  0.00400649     0.87400
O746        O  0.52352165  0.01585955  0.96794359    -0.87900
O747        O  0.52629614  0.01621994  0.01704853    -0.88000
O748        O  0.55167617  0.99299273  0.00598780    -0.75000
Mg749      Mg  0.45202396  0.99282134  0.01957068     1.58000
O750        O  0.47594374  0.02031875  0.06880530    -0.82400
H751        H  0.45310785  0.98092031  0.95010909    -0.06100
O752        O  0.52401159  0.96606030  0.97108789    -0.87700
H753        H  0.54510967  0.94566650  0.98604041    -0.06000
H754        H  0.50764394  0.03568629  0.94698261    -0.06100
C755        C  0.52816286  0.95063350  0.98378159     0.87400
C756        C  0.45864863  0.97936831  0.96697594     0.88000
C757        C  0.51051083  0.01902706  0.95254116     0.88000
H758        H  0.54754860  0.00209533  0.03789250    -0.06100
O759        O  0.50058193  0.98067965  0.04523371    -0.75100
Mg760      Mg  0.54878147  0.99132955  0.96817114     1.58000
H761        H  0.49242253  0.94844651  0.04195919    -0.06100
C762        C  0.48693759  0.91147845  0.95424889     0.93000
O763        O  0.52420807  0.96463684  0.91872535    -0.82400
C764        C  0.53979882  0.97799162  0.91458778     0.93100
O765        O  0.42515562  0.96713605  0.02147863    -0.82400
Mg766      Mg  0.50138543  0.01844820  0.04180850     1.58200
O767        O  0.49749367  0.92726418  0.94519166    -0.80700
O768        O  0.52610671  0.06958036  0.01740596    -0.82400
C769        C  0.49443524  0.22181300  0.11002692     0.86900
C770        C  0.47493609  0.22213763  0.12576623    -0.53400
C771        C  0.47455555  0.23928578  0.14008448     0.09800
C772        C  0.49432921  0.25547905  0.13736407     0.20700
C773        C  0.49282764  0.24499797  0.09892250    -0.54100
C774        C  0.49313603  0.26262397  0.11312682     0.09900
C775        C  0.51475318  0.22358991  0.12493999    -0.53600
C776        C  0.51569264  0.24153337  0.13843600     0.10500
H777        H  0.46157509  0.21025790  0.12479011     0.15000
H778        H  0.49421752  0.26951271  0.14889186     0.00700
H779        H  0.49025615  0.24824261  0.08166673     0.15300
H780        H  0.52804815  0.21169189  0.12400719     0.15100
O781        O  0.46628139  0.50133366  0.98210235    -0.88000
C782        C  0.49984401  0.44375132  0.99221423     0.88100
Mg783      Mg  0.47907381  0.52875665  0.96406043     1.58100
O784        O  0.49668822  0.47714210  0.03919224    -0.87700
O785        O  0.45390012  0.49422923  0.01538047    -0.75000
C786        C  0.57995597  0.54013407  0.00538059     0.93100
O787        O  0.50176924  0.47859503  0.95094467    -0.74900
O788        O  0.56814286  0.54590092  0.98904890    -0.82400
Mg789      Mg  0.46856878  0.46967901  0.96698903     1.58000
C790        C  0.55046284  0.49016217  0.07662101     0.93000
O791        O  0.43459204  0.45978943  0.98044961    -0.80600
H792        H  0.47852279  0.49304952  0.06151971    -0.06000
C793        C  0.55213628  0.48322872  0.00238076     0.88000
O794        O  0.48870578  0.54544074  0.99674439    -0.75100
O795        O  0.48501448  0.45722399  0.99567375    -0.87900
O796        O  0.53978447  0.47347338  0.06971152    -0.80700
C797        C  0.49573818  0.41918906  0.05170120     0.93100
C798        C  0.42616391  0.44992311  0.99695631     0.93000
Mg799      Mg  0.53765781  0.51881332  0.03391186     1.58000
O800        O  0.57185671  0.52845217  0.02076958    -0.80600
O801        O  0.50487979  0.51037413  0.05054574    -0.74900
O802        O  0.47985927  0.42707055  0.04032374    -0.80700
O803        O  0.45209358  0.48152763  0.93563546    -0.82400
O804        O  0.52461057  0.56333693  0.96390199    -0.80700
C805        C  0.49292522  0.49323133  0.05106979     0.87400
O806        O  0.52063670  0.53129585  0.00577131    -0.87900
O807        O  0.53996276  0.48724593  0.01824675    -0.88000
O808        O  0.55305485  0.49572932  0.98553807    -0.75000
Mg809      Mg  0.46837582  0.46104399  0.02662848     1.58000
O810        O  0.51355047  0.42989140  0.05467506    -0.82400
H811        H  0.44475072  0.52088779  0.99744371    -0.06100
O812        O  0.51001831  0.51208855  0.96185296    -0.87700
H813        H  0.52860914  0.49548537  0.94038410    -0.06000
H814        H  0.50616419  0.55478251  0.02372366    -0.06100
C815        C  0.51395685  0.49564088  0.95048049     0.87400
C816        C  0.45444447  0.50597929  0.99803101     0.88000
C817        C  0.50543692  0.54435778  0.00929484     0.88000
H818        H  0.56198489  0.46839811  0.00264815    -0.06100
O819        O  0.51682350  0.44272304  0.00438662    -0.75100
Mg820      Mg  0.53773701  0.52906449  0.97529570     1.58000
H821        H  0.49862612  0.43299395  0.97807150    -0.06100
C822        C  0.45654189  0.49788016  0.92332608     0.93000
O823        O  0.49229719  0.55941660  0.94695633    -0.82400
C824        C  0.50873397  0.57124621  0.95254966     0.93100
O825        O  0.43727390  0.44531925  0.01410225    -0.82400
Mg826      Mg  0.52725578  0.45970587  0.03652349     1.58200
O827        O  0.46761068  0.51439424  0.93025798    -0.80700
O828        O  0.55411054  0.50686936  0.06461747    -0.82400
O829        O  0.01969012  0.52547436  0.47093908    -0.88000
C830        C  0.02430037  0.46036937  0.48645902     0.88100
Mg831      Mg  0.02253261  0.55087181  0.49542495     1.58100
O832        O  0.97088037  0.47870165  0.47522710    -0.87700
O833        O  0.99587221  0.51376282  0.44640651    -0.75000
C834        C  0.95826976  0.51617289  0.57831589     0.93100
O835        O  0.04887996  0.50269325  0.50832293    -0.74900
O836        O  0.97563079  0.52764081  0.57537494    -0.82400
Mg837      Mg  0.04491974  0.50075458  0.47064494     1.58000
C838        C  0.91854842  0.46205714  0.51407322     0.93000
O839        O  0.04436124  0.49802825  0.43255405    -0.80600
H840        H  0.94945552  0.49316679  0.45481538    -0.06000
C841        C  0.98746500  0.47495037  0.53981754     0.88000
O842        O  0.98488022  0.55323919  0.49803713    -0.75100
O843        O  0.02006467  0.47589815  0.47394513    -0.87900
O844        O  0.93401170  0.45375754  0.50258952    -0.80700
C845        C  0.98101829  0.42248437  0.45806524     0.93100
C846        C  0.03511858  0.48683511  0.41732049     0.93000
Mg847      Mg  0.94939323  0.50377048  0.52451761     1.58000
O848        O  0.94905661  0.50630403  0.56224900    -0.80600
O849        O  0.94604781  0.50218167  0.48681190    -0.74900
O850        O  0.99218700  0.43775326  0.44885948    -0.80700
O851        O  0.07210732  0.52639262  0.46823995    -0.82400
O852        O  0.00181421  0.56547718  0.54718395    -0.80700
C853        C  0.95516731  0.49113242  0.47157568     0.87400
O854        O  0.97448204  0.52814213  0.52187090    -0.87900
O855        O  0.97464991  0.47902226  0.52449486    -0.88000
O856        O  0.99893422  0.48987493  0.54894260    -0.75000
Mg857      Mg  0.99447210  0.47598008  0.44945761     1.58000
O858        O  0.96965302  0.42602326  0.47529737    -0.82400
H859        H  0.00457194  0.54582910  0.44991523    -0.06100
O860        O  0.02387355  0.52578181  0.52038586    -0.87700
H861        H  0.04596319  0.51172900  0.54036801    -0.06000
H862        H  0.95327788  0.54917415  0.50804378    -0.06100
C863        C  0.03987067  0.51362022  0.52373164     0.87400
C864        C  0.00689165  0.52908194  0.45548311     0.88000
C865        C  0.97017921  0.54381903  0.50958074     0.88000
H866        H  0.98956762  0.45807080  0.54504989    -0.06100
O867        O  0.00948262  0.45100521  0.49793000    -0.75100
Mg868      Mg  0.00004116  0.52752345  0.54647285     1.58000
H869        H  0.04119419  0.45502584  0.48816632    -0.06100
C870        C  0.07576553  0.54337589  0.47997522     0.93000
O871        O  0.02382431  0.57858426  0.52086168    -0.82400
C872        C  0.01216578  0.58137971  0.53811152     0.93100
O873        O  0.01855224  0.47461642  0.42116713    -0.82400
Mg874      Mg  0.97174954  0.45385701  0.50015313     1.58200
O875        O  0.06067538  0.55210662  0.49175882    -0.80700
O876        O  0.92196832  0.47852702  0.52652154    -0.82400
O877        O  0.97416129  0.47224839  0.98013305    -0.88000
C878        C  0.03877059  0.48802660  0.97507009     0.88100
Mg879      Mg  0.94920934  0.49693816  0.97739140     1.58100
O880        O  0.02129285  0.47618279  0.02871519    -0.87700
O881        O  0.98587347  0.44763834  0.00387183    -0.75000
C882        C  0.98403606  0.57850027  0.04155235     0.93100
O883        O  0.99700192  0.50952727  0.95041342    -0.74900
O884        O  0.97231442  0.57509505  0.02449307    -0.82400
Mg885      Mg  0.99844779  0.47189288  0.95447709     1.58000
C886        C  0.03900971  0.51347224  0.08171059     0.93000
O887        O  0.00056692  0.43379396  0.95513393    -0.80600
H888        H  0.00703082  0.45545146  0.04997521    -0.06000
C889        C  0.02552971  0.54049318  0.01305245     0.88000
O890        O  0.94661938  0.49938301  0.01507370    -0.75100
O891        O  0.02331478  0.47539208  0.97924013    -0.87900
O892        O  0.04763683  0.50287809  0.06578644    -0.80700
C893        C  0.07729483  0.45938958  0.01641006     0.93100
C894        C  0.01240833  0.41890418  0.96408145     0.93000
Mg895      Mg  0.99667053  0.52502253  0.05098266     1.58000
O896        O  0.99467711  0.56309467  0.05115497    -0.80600
O897        O  0.99793266  0.48733961  0.05387916    -0.74900
O898        O  0.06157575  0.45103874  0.00528821    -0.80700
O899        O  0.97263054  0.46972283  0.92734986    -0.82400
O900        O  0.93493277  0.54933461  0.99673574    -0.80700
C901        C  0.00899208  0.47228713  0.04448763     0.87400
O902        O  0.97198718  0.52283022  0.02567108    -0.87900
O903        O  0.02152350  0.52515062  0.02583021    -0.88000
O904        O  0.01056992  0.54952130  0.00155659    -0.75000
Mg905      Mg  0.02366839  0.45089411  0.00456141     1.58000
O906        O  0.07402059  0.47557067  0.02924797    -0.82400
H907        H  0.95374229  0.45138189  0.99539215    -0.06100
O908        O  0.97470597  0.52139261  0.97615587    -0.87700
H909        H  0.98836287  0.54159300  0.95400113    -0.06000
H910        H  0.95070269  0.50918292  0.04675421    -0.06100
C911        C  0.98649579  0.52489736  0.95992179     0.87400
C912        C  0.97052543  0.45682272  0.99295780     0.88000
C913        C  0.95614132  0.51072306  0.02987066     0.88000
H914        H  0.04239614  0.54582297  0.01098958    -0.06100
O915        O  0.04847476  0.49903185  0.99003839    -0.75100
Mg916      Mg  0.97290476  0.54723742  0.99991684     1.58000
H917        H  0.04381229  0.49019298  0.95812849    -0.06100
C918        C  0.95634862  0.48252732  0.92416542     0.93000
O919        O  0.92205635  0.52239089  0.97541665    -0.82400
C920        C  0.91934232  0.54028907  0.98590173     0.93100
O921        O  0.02511730  0.42299505  0.98019277    -0.82400
Mg922      Mg  0.04651505  0.50071644  0.02794796     1.58200
O923        O  0.94823663  0.49421768  0.93956856    -0.80700
O924        O  0.02212156  0.52565193  0.07893071    -0.82400
C925        C  0.13921307  0.52984420  0.25601635     0.86900
C926        C  0.12172628  0.52593372  0.27340892    -0.53400
C927        C  0.10991060  0.50724522  0.27083377     0.09800
C928        C  0.11635832  0.49370432  0.25012452     0.20700
C929        C  0.15311971  0.50833991  0.25605922    -0.54100
C930        C  0.14129391  0.48920612  0.25267078     0.09900
C931        C  0.12715842  0.52840681  0.23374359    -0.53600
C932        C  0.11510592  0.50972190  0.23044197     0.10500
H933        H  0.11967479  0.53663259  0.28760820     0.15000
H934        H  0.10632645  0.47885108  0.24736905     0.00700
H935        H  0.17075247  0.50810571  0.25761194     0.15300
H936        H  0.12847107  0.54114957  0.22126346     0.15100
O937        O  0.46056966  0.49182163  0.51811818    -0.88000
C938        C  0.49667527  0.54815040  0.51186261     0.88100
Mg939      Mg  0.47281806  0.46249247  0.53357660     1.58100
O940        O  0.48996091  0.51854013  0.46274421    -0.87700
O941        O  0.44676171  0.50258940  0.48644965    -0.75000
C942        C  0.57171601  0.45002223  0.48955392     0.93100
O943        O  0.49766140  0.51077381  0.55017388    -0.74900
O944        O  0.56104094  0.44441636  0.50668028    -0.82400
Mg945      Mg  0.46439506  0.52204331  0.53592307     1.58000
C946        C  0.54200820  0.50581516  0.42221281     0.93000
O947        O  0.43014931  0.53441694  0.52417432    -0.80600
H948        H  0.47013673  0.50469973  0.44037944    -0.06000
C949        C  0.54672142  0.50730343  0.49650966     0.88000
O950        O  0.48091918  0.44764611  0.49978996    -0.75100
O951        O  0.48064782  0.53623131  0.50789769    -0.87900
O952        O  0.53186364  0.52198213  0.43087775    -0.80700
C953        C  0.49278467  0.57734634  0.45438665     0.93100
C954        C  0.42215867  0.54656485  0.50895505     0.93000
Mg955      Mg  0.52949264  0.47445139  0.46317877     1.58000
O956        O  0.56320787  0.46184747  0.47446312    -0.80600
O957        O  0.49640468  0.48586123  0.44879501    -0.74900
O958        O  0.47657196  0.57000514  0.46569499    -0.80700
O959        O  0.44872357  0.50797655  0.56694818    -0.82400
O960        O  0.51769315  0.42674427  0.53170154    -0.80700
C961        C  0.48501910  0.50335876  0.45008497     0.87400
O962        O  0.51337402  0.46068657  0.49112320    -0.87900
O963        O  0.53366769  0.50457685  0.48107526    -0.88000
O964        O  0.54763098  0.49413045  0.51278263    -0.75000
Mg965      Mg  0.46305608  0.53569508  0.47729173     1.58000
O966        O  0.50951181  0.56547423  0.45021275    -0.82400
H967        H  0.43707585  0.47487128  0.50245253    -0.06100
O968        O  0.50434937  0.47806957  0.53627848    -0.87700
H969        H  0.52411288  0.49216231  0.55854042    -0.06000
H970        H  0.49752477  0.43894945  0.47213303    -0.06100
C971        C  0.50919282  0.49334938  0.54888114     0.87400
C972        C  0.44762413  0.48922446  0.50257841     0.88000
C973        C  0.49753140  0.44854801  0.48713860     0.88000
H974        H  0.55725793  0.52166998  0.49645321    -0.06100
O975        O  0.51334685  0.54877992  0.49924662    -0.75100
Mg976      Mg  0.53127737  0.46105058  0.52154670     1.58000
H977        H  0.49678603  0.55781256  0.52683416    -0.06100
C978        C  0.45262094  0.49014353  0.57728696     0.93000
O979        O  0.48549854  0.43065523  0.54863542    -0.82400
C980        C  0.50181466  0.41878179  0.54295949     0.93100
O981        O  0.43339387  0.55244513  0.49226075    -0.82400
Mg982      Mg  0.52164833  0.53379797  0.46550239     1.58200
O983        O  0.46255701  0.47410512  0.56815070    -0.80700
O984        O  0.54565803  0.48807644  0.43267764    -0.82400
C985        C  0.98950866  0.77258749  0.60681013     0.86900
C986        C  0.00869868  0.77171816  0.62341688    -0.53400
C987        C  0.00977341  0.75311431  0.63607816     0.09800
C988        C  0.99075910  0.73687175  0.63111394     0.20700
C989        C  0.99134545  0.75143051  0.59345640    -0.54100
C990        C  0.99199749  0.73277175  0.60585653     0.09900
C991        C  0.96934554  0.76923403  0.62178030    -0.53600
C992        C  0.96963894  0.75070616  0.63461766     0.10500
H993        H  0.02040984  0.78499097  0.62546587     0.15000
H994        H  0.99137674  0.72182777  0.64130878     0.00700
H995        H  0.99223716  0.75120746  0.57558827     0.15300
H996        H  0.95596161  0.78097186  0.62264540     0.15100
O997        O  0.20339000  0.76619464  0.75318376    -0.88000
C998        C  0.23479930  0.75443558  0.69524003     0.88100
Mg999      Mg  0.21802457  0.78409491  0.77961521     1.58100
O1000       O  0.23270996  0.70874355  0.73047755    -0.87700
O1001       O  0.19012455  0.73296355  0.74824129    -0.75000
C1002       C  0.31971754  0.74387524  0.78739377     0.93100
O1003       O  0.23830706  0.79664310  0.72816866    -0.74900
O1004       O  0.30890051  0.76117594  0.79208730    -0.82400
Mg1005     Mg  0.20461353  0.78095786  0.72103532     1.58000
C1006       C  0.28782860  0.67022178  0.74136592     0.93000
O1007       O  0.16987457  0.76808078  0.71165354    -0.80600
H1008       H  0.21544427  0.68675996  0.74790267    -0.06000
C1009       C  0.28910522  0.74453339  0.73192546     0.88000
O1010       O  0.22860890  0.75174724  0.79627513    -0.75100
O1011       O  0.22011503  0.75166139  0.70908785    -0.87900
O1012       O  0.27515419  0.67663299  0.72581108    -0.80700
C1013       C  0.22933126  0.69591486  0.67246520     0.93100
C1014       C  0.16109872  0.75102220  0.70306633     0.93000
Mg1015     Mg  0.27667827  0.71406986  0.76935289     1.58000
O1016       O  0.31086887  0.72764610  0.77753696    -0.80600
O1017       O  0.24334779  0.69731163  0.76301173    -0.74900
O1018       O  0.21394096  0.70725530  0.68114564    -0.80700
O1019       O  0.18962072  0.81305590  0.73313315    -0.82400
O1020       O  0.26567390  0.78609499  0.81140777    -0.80700
C1021       C  0.22996545  0.69703825  0.74692016     0.87400
O1022       O  0.26041397  0.74266733  0.78178483    -0.87900
O1023       O  0.27719596  0.72889926  0.73741709    -0.88000
O1024       O  0.29048811  0.76203646  0.74336804    -0.75000
Mg1025     Mg  0.20353963  0.72094945  0.71506431     1.58000
O1026       O  0.24710323  0.69169076  0.68279195    -0.82400
H1027       H  0.18197007  0.75246123  0.77405841    -0.06100
O1028       O  0.24809247  0.78585633  0.76126959    -0.87700
H1029       H  0.26600121  0.80714321  0.74365184    -0.06000
H1030       H  0.24645122  0.72521738  0.80598387    -0.06100
C1031       C  0.25129053  0.79714202  0.74459414     0.87400
C1032       C  0.19124441  0.75088166  0.75895433     0.88000
C1033       C  0.24545945  0.73938814  0.79522923     0.88000
H1034       H  0.29816786  0.74351452  0.71663881    -0.06100
O1035       O  0.25155614  0.74195175  0.69422310    -0.75100
Mg1036     Mg  0.27696933  0.77348216  0.77699593     1.58000
H1037       H  0.23365935  0.76828243  0.68407644    -0.06100
C1038       C  0.19461961  0.82489356  0.74972397     0.93000
O1039       O  0.23260848  0.80180272  0.80901957    -0.82400
C1040       C  0.24992531  0.79716995  0.81988358     0.93100
O1041       O  0.17167631  0.73319270  0.70022030    -0.82400
Mg1042     Mg  0.26243763  0.71003092  0.71150996     1.58200
O1043       O  0.20587906  0.81731951  0.76578181    -0.80700
O1044       O  0.29315431  0.68313833  0.75695274    -0.82400
C1045       C  0.47254907  0.74058258  0.85481376     0.86900
C1046       C  0.47443276  0.76070115  0.87010323    -0.53400
C1047       C  0.49297562  0.76134095  0.88286023     0.09800
C1048       C  0.50868624  0.74174517  0.87863862     0.20700
C1049       C  0.49403477  0.74211137  0.84128038    -0.54100
C1050       C  0.51295709  0.74261398  0.85355095     0.09900
C1051       C  0.47564957  0.72071875  0.86981339    -0.53600
C1052       C  0.49455044  0.72071912  0.88192425     0.10500
H1053       H  0.46228224  0.77379722  0.87046726     0.15000
H1054       H  0.52388096  0.74230225  0.88877742     0.00700
H1055       H  0.49455243  0.74405036  0.82360004     0.15300
H1056       H  0.46404145  0.70710384  0.87013747     0.15100
C1057       C  0.37989032  0.75874338  0.79752673    -0.05100
C1058       C  0.38751207  0.73958802  0.80812765     0.09100
C1059       C  0.37343121  0.72131493  0.81054843    -0.02500
C1060       C  0.35129270  0.72272314  0.80382741    -0.00700
C1061       C  0.34327465  0.74221545  0.79386443    -0.04400
C1062       C  0.35791562  0.75996300  0.79008494     0.02700
C1063       C  0.40931876  0.73958347  0.81944718     0.09500
C1064       C  0.38163755  0.70127847  0.82065850     0.35400
C1065       C  0.35058759  0.77929612  0.77814034     0.38800
C1066       C  0.41018333  0.74452503  0.84199947    -0.04700
C1067       C  0.43028001  0.74341684  0.85345692     0.02400
C1068       C  0.45037403  0.73900442  0.84216063    -0.04300
C1069       C  0.44865095  0.73114070  0.82004078    -0.00600
C1070       C  0.42843902  0.73253840  0.80853577    -0.03100
C1071       C  0.39006420  0.75031691  0.85358800     0.36100
C1072       C  0.46617562  0.71856869  0.80989592     0.39800
C1073       C  0.42942461  0.74485266  0.87723757     0.38900
C1074       C  0.42708524  0.72611496  0.78555595     0.35800
C1075       C  0.39460947  0.77734252  0.79478950     0.36500
C1076       C  0.33655501  0.70450464  0.80842101     0.39700
N1077       N  0.42768923  0.74567902  0.89616910    -0.38300
N1078       N  0.37401140  0.75487673  0.86275987    -0.39900
N1079       N  0.47985234  0.70827809  0.80154777    -0.37700
N1080       N  0.42598456  0.72109034  0.76720694    -0.40000
N1081       N  0.38822719  0.68529170  0.82864995    -0.39800
N1082       N  0.32483390  0.68999084  0.81225157    -0.37400
N1083       N  0.34483430  0.79468254  0.76848668    -0.38500
N1084       N  0.40643873  0.79212868  0.79269239    -0.40200
C1085       C  0.05597135  0.76746780  0.67628644    -0.05100
C1086       C  0.07004305  0.74928599  0.67358226     0.09100
C1087       C  0.06221619  0.73045858  0.66248510    -0.02500
C1088       C  0.04106886  0.73045699  0.65270566    -0.00700
C1089       C  0.02823551  0.74994838  0.65246686    -0.04400
C1090       C  0.03523962  0.76787515  0.66579110     0.02700
C1091       C  0.09334389  0.75032843  0.68178528     0.09500
C1092       C  0.07633028  0.71132240  0.66040163     0.35400
C1093       C  0.02125674  0.78694799  0.66885047     0.38800
C1094       C  0.09983836  0.73827890  0.70058921    -0.04700
C1095       C  0.12198014  0.73870544  0.70765976     0.02400
C1096       C  0.13764218  0.75166706  0.69634455    -0.04300
C1097       C  0.13099018  0.76441854  0.67810043    -0.00600
C1098       C  0.10899577  0.76348702  0.67062598    -0.03100
C1099       C  0.08368105  0.72553451  0.71270182     0.36100
C1100       C  0.14692491  0.77807151  0.66669219     0.39800
C1101       C  0.12862357  0.72605641  0.72682010     0.38900
C1102       C  0.10251943  0.77573712  0.65115410     0.35800
C1103       C  0.06317591  0.78606826  0.68943785     0.36500
C1104       C  0.03282679  0.71015333  0.64340042     0.39700
N1105       N  0.13396330  0.71599791  0.74210986    -0.38300
N1106       N  0.07076508  0.71536278  0.72233684    -0.39900
N1107       N  0.15964686  0.78901265  0.65765941    -0.37700
N1108       N  0.09728114  0.78548330  0.63562892    -0.40000
N1109       N  0.08761967  0.69608662  0.65874714    -0.39800
N1110       N  0.02659043  0.69339266  0.63685313    -0.37400
N1111       N  0.01058684  0.80249569  0.67136761    -0.38500
N1112       N  0.06898330  0.80088197  0.69990436    -0.40200
C1113       C  0.06551159  0.48811959  0.13301461    -0.05100
C1114       C  0.06945373  0.50687533  0.14606763     0.09100
C1115       C  0.06290943  0.52777578  0.13830024    -0.02500
C1116       C  0.05262872  0.52997294  0.11751433    -0.00700
C1117       C  0.04903000  0.51124401  0.10412810    -0.04400
C1118       C  0.05545948  0.49024864  0.11212444     0.02700
C1119       C  0.08159196  0.50486260  0.16752815     0.09500
C1120       C  0.06718492  0.54711036  0.15162808     0.35400
C1121       C  0.05147680  0.47065609  0.09906322     0.38800
C1122       C  0.10432183  0.50932830  0.16835028    -0.04700
C1123       C  0.11555045  0.50931137  0.18869479     0.02400
C1124       C  0.10405875  0.50515784  0.20865381    -0.04300
C1125       C  0.08180738  0.49816210  0.20736102    -0.00600
C1126       C  0.07054027  0.49851177  0.18693944    -0.03100
C1127       C  0.11614124  0.51406887  0.14812641     0.36100
C1128       C  0.07039059  0.48998169  0.22661455     0.39800
C1129       C  0.13916487  0.51291348  0.18881413     0.38900
C1130       C  0.04742453  0.49259853  0.18587911     0.35800
C1131       C  0.07207424  0.46661580  0.14106020     0.36500
C1132       C  0.04663663  0.55168286  0.10958993     0.39700
N1133       N  0.15797834  0.51589589  0.18868588    -0.38300
N1134       N  0.12552703  0.51780981  0.13197000    -0.39900
N1135       N  0.06103204  0.48255694  0.24146446    -0.37700
N1136       N  0.02899238  0.48784311  0.18501750    -0.40000
N1137       N  0.07072719  0.56249503  0.16227381    -0.39800
N1138       N  0.04185688  0.56900806  0.10327838    -0.37400
N1139       N  0.04840246  0.45501420  0.08864480    -0.38500
N1140       N  0.07726690  0.44948798  0.14757536    -0.40200
C1141       C  0.00612665  0.62752762  0.58044925    -0.05100
C1142       C  0.00245247  0.64594856  0.56680652     0.09100
C1143       C  0.00285125  0.64340474  0.54372179    -0.02500
C1144       C  0.00667305  0.62252061  0.53426637    -0.00700
C1145       C  0.01006043  0.60386491  0.54790203    -0.04400
C1146       C  0.01022286  0.60665904  0.57108146     0.02700
C1147       C  0.99955363  0.66837675  0.57667545     0.09500
C1148       C  0.99921735  0.66241024  0.52971071     0.35400
C1149       C  0.01576333  0.58830678  0.58533985     0.38800
C1150       C  0.01808906  0.68201255  0.57991740    -0.04700
C1151       C  0.01553622  0.70328961  0.58883366     0.02400
C1152       C  0.99450826  0.71077361  0.59531657    -0.04300
C1153       C  0.97581092  0.69794125  0.59023321    -0.00600
C1154       C  0.97835050  0.67650021  0.58162530    -0.03100
C1155       C  0.03979382  0.67407365  0.57397406     0.36100
C1156       C  0.95400728  0.70740494  0.59239953     0.39800
C1157       C  0.03446413  0.71773787  0.59072143     0.38900
C1158       C  0.95917850  0.66282073  0.57777374     0.35800
C1159       C  0.00575840  0.63012044  0.60418970     0.36500
C1160       C  0.00673623  0.62034770  0.51047114     0.39700
N1161       N  0.04954776  0.72929727  0.59211302    -0.38300
N1162       N  0.05704860  0.66759919  0.56918751    -0.39900
N1163       N  0.93665427  0.71511016  0.59391536    -0.37700
N1164       N  0.94386109  0.65187778  0.57481883    -0.40000
N1165       N  0.99628989  0.67763315  0.51863082    -0.39800
N1166       N  0.00692446  0.61872963  0.49147850    -0.37400
N1167       N  0.02039768  0.57367421  0.59663689    -0.38500
N1168       N  0.00538014  0.63217655  0.62313312    -0.40200
C1169       C  0.05857208  0.51073711  0.36407362    -0.05100
C1170       C  0.06031707  0.49180808  0.35074842     0.09100
C1171       C  0.05289552  0.47136910  0.35886973    -0.02500
C1172       C  0.04486502  0.46958971  0.38063012    -0.00700
C1173       C  0.04362124  0.48847007  0.39429517    -0.04400
C1174       C  0.05003796  0.50915872  0.38561831     0.02700
C1175       C  0.07190097  0.49316228  0.32899559     0.09500
C1176       C  0.05374033  0.45212727  0.34477755     0.35400
C1177       C  0.04735991  0.52904076  0.39857454     0.38800
C1178       C  0.09402809  0.48628774  0.32750125    -0.04700
C1179       C  0.10608837  0.48994929  0.30803403     0.02400
C1180       C  0.09590381  0.49981276  0.28951344    -0.04300
C1181       C  0.07386332  0.50703139  0.29116079    -0.00600
C1182       C  0.06173408  0.50322818  0.31064765    -0.03100
C1183       C  0.10473359  0.47642229  0.34647524     0.36100
C1184       C  0.06437794  0.52030354  0.27371562     0.39800
C1185       C  0.12950978  0.48515027  0.30774069     0.38900
C1186       C  0.03906540  0.51051678  0.31220611     0.35800
C1187       C  0.06583957  0.53188292  0.35565125     0.36500
C1188       C  0.03877145  0.44810364  0.38911092     0.39700
N1189       N  0.14819885  0.48145094  0.30766712    -0.38300
N1190       N  0.11319284  0.46852710  0.36162685    -0.39900
N1191       N  0.05685732  0.53109849  0.25991884    -0.37700
N1192       N  0.02099896  0.51640558  0.31349272    -0.40000
N1193       N  0.05437550  0.43683868  0.33345214    -0.39800
N1194       N  0.03396524  0.43093112  0.39582352    -0.37400
N1195       N  0.04518070  0.54489431  0.40888761    -0.38500
N1196       N  0.07153973  0.54874564  0.34886169    -0.40200
C1197       C  0.48917844  0.62973250  0.93959926    -0.05100
C1198       C  0.50832743  0.63928987  0.93061650     0.09100
C1199       C  0.52814252  0.62722688  0.93057356    -0.02500
C1200       C  0.52854395  0.60523489  0.93820530    -0.00700
C1201       C  0.50903109  0.59505507  0.94599588    -0.04400
C1202       C  0.48952636  0.60782443  0.94741159     0.02700
C1203       C  0.50682002  0.66063341  0.91824812     0.09500
C1204       C  0.54796307  0.63731824  0.92186268     0.35400
C1205       C  0.46979715  0.59863193  0.95727277     0.38800
C1206       C  0.50920924  0.68113370  0.92894211    -0.04700
C1207       C  0.50625234  0.70100325  0.91704225     0.02400
C1208       C  0.50118261  0.70040575  0.89431887    -0.04300
C1209       C  0.50074876  0.67977653  0.88339394    -0.00600
C1210       C  0.50284402  0.66007855  0.89539928    -0.03100
C1211       C  0.51445778  0.68170803  0.95221416     0.36100
C1212       C  0.49910396  0.67874128  0.85955744     0.39800
C1213       C  0.50815558  0.72192617  0.92827593     0.38900
C1214       C  0.50041700  0.63906944  0.88429164     0.35800
C1215       C  0.46890073  0.64231646  0.94015860     0.36500
C1216       C  0.54889469  0.59291367  0.93695186     0.39700
N1217       N  0.50995263  0.73857441  0.93733134    -0.38300
N1218       N  0.51873278  0.68217860  0.97078593    -0.39900
N1219       N  0.49802708  0.67782934  0.84055174    -0.37700
N1220       N  0.49833747  0.62227454  0.87557161    -0.40000
N1221       N  0.56370714  0.64547242  0.91488387    -0.39800
N1222       N  0.56525994  0.58326814  0.93585575    -0.37400
N1223       N  0.45407564  0.59133129  0.96519184    -0.38500
N1224       N  0.45274547  0.65238818  0.94057737    -0.40200
C1225       C  0.50746222  0.31544574  0.08097145    -0.05100
C1226       C  0.49229982  0.33074659  0.08953014     0.09100
C1227       C  0.47797027  0.32409980  0.10652410    -0.02500
C1228       C  0.47895595  0.30244518  0.11512523    -0.00700
C1229       C  0.49309496  0.28641955  0.10551259    -0.04400
C1230       C  0.50754465  0.29340387  0.08844459     0.02700
C1231       C  0.49157127  0.35385428  0.08049498     0.09500
C1232       C  0.46186634  0.33957911  0.11496931     0.35400
C1233       C  0.52309034  0.27827482  0.07859438     0.38800
C1234       C  0.48371740  0.35773143  0.05892304    -0.04700
C1235       C  0.48524114  0.37892495  0.04942085     0.02400
C1236       C  0.49347600  0.39683877  0.06185384    -0.04300
C1237       C  0.50001527  0.39317493  0.08396741    -0.00600
C1238       C  0.49958444  0.37173231  0.09302855    -0.03100
C1239       C  0.47410656  0.33976686  0.04646881     0.36100
C1240       C  0.50661744  0.41157350  0.09768973     0.39800
C1241       C  0.47948723  0.38191924  0.02642326     0.38900
C1242       C  0.50771237  0.36801017  0.11519372     0.35800
C1243       C  0.52322169  0.32253659  0.06444410     0.36500
C1244       C  0.46548981  0.29742680  0.13413985     0.39700
N1245       N  0.47513125  0.38422454  0.00800442    -0.38300
N1246       N  0.46637620  0.32538644  0.03665858    -0.39900
N1247       N  0.51170272  0.42628270  0.10867108    -0.37700
N1248       N  0.51414942  0.36504265  0.13289500    -0.40000
N1249       N  0.44898554  0.35189000  0.12166439    -0.39800
N1250       N  0.45489472  0.29468341  0.14973718    -0.37400
N1251       N  0.53544963  0.26663521  0.07001949    -0.38500
N1252       N  0.53577273  0.32824827  0.05129353    -0.40200
C1253       C  0.49864564  0.84988378  0.94919111    -0.05100
C1254       C  0.49327284  0.84579703  0.92693427     0.09100
C1255       C  0.48578901  0.86335600  0.91360655    -0.02500
C1256       C  0.48381629  0.88481367  0.92243260    -0.00700
C1257       C  0.48887045  0.88884861  0.94482394    -0.04400
C1258       C  0.49619543  0.87119607  0.95816751     0.02700
C1259       C  0.49513927  0.82289812  0.91765201     0.09500
C1260       C  0.47979739  0.85923078  0.89084980     0.35400
C1261       C  0.50183108  0.87504229  0.98106064     0.38800
C1262       C  0.47968451  0.80657048  0.92352370    -0.04700
C1263       C  0.48112535  0.78527621  0.91439582     0.02400
C1264       C  0.49688991  0.78047918  0.89799437    -0.04300
C1265       C  0.51359992  0.79612257  0.89371310    -0.00600
C1266       C  0.51269469  0.81725114  0.90350180    -0.03100
C1267       C  0.46192968  0.81182831  0.93857397     0.36100
C1268       C  0.53216185  0.79058380  0.87990805     0.39800
C1269       C  0.46750641  0.76778583  0.92315162     0.38900
C1270       C  0.52974706  0.83332139  0.89889169     0.35800
C1271       C  0.50697328  0.83209931  0.96278761     0.36500
C1272       C  0.47591539  0.90261585  0.90860941     0.39700
N1273       N  0.45728889  0.75379732  0.93107334    -0.38300
N1274       N  0.44773327  0.81605659  0.95053994    -0.39900
N1275       N  0.54775205  0.78687328  0.86964684    -0.37700
N1276       N  0.54335333  0.84614667  0.89522863    -0.40000
N1277       N  0.47502101  0.85590186  0.87269780    -0.39800
N1278       N  0.46959814  0.91682649  0.89759427    -0.37400
N1279       N  0.50630561  0.87807431  0.99933964    -0.38500
N1280       N  0.51359339  0.81782253  0.97353075    -0.40200
C1281       C  0.48483566  0.12359915  0.05636924    -0.05100
C1282       C  0.50298133  0.13611704  0.06364786     0.09100
C1283       C  0.52452929  0.12802280  0.06041048    -0.02500
C1284       C  0.52792826  0.10741156  0.05017694    -0.00700
C1285       C  0.50974792  0.09464016  0.04320511    -0.04400
C1286       C  0.48816754  0.10297543  0.04619654     0.02700
C1287       C  0.49946317  0.15786959  0.07487314     0.09500
C1288       C  0.54319988  0.14088821  0.06789817     0.35400
C1289       C  0.46932838  0.09062297  0.03822885     0.38800
C1290       C  0.49776250  0.15890920  0.09787253    -0.04700
C1291       C  0.49589411  0.17940904  0.10866575     0.02400
C1292       C  0.49534254  0.19976177  0.09654767    -0.04300
C1293       C  0.49666391  0.19816558  0.07298937    -0.00600
C1294       C  0.49846722  0.17737226  0.06250402    -0.03100
C1295       C  0.49797576  0.13860049  0.11051213     0.36100
C1296       C  0.49702365  0.21710686  0.05860175     0.39800
C1297       C  0.49510734  0.17912812  0.13261386     0.38900
C1298       C  0.49942669  0.17586653  0.03862699     0.35800
C1299       C  0.46270584  0.13201614  0.05938895     0.36500
C1300       C  0.55011956  0.09902595  0.04757492     0.39700
N1301       N  0.49452849  0.17878298  0.15167000    -0.38300
N1302       N  0.49805069  0.12239252  0.12052980    -0.39900
N1303       N  0.49742513  0.23135562  0.04592794    -0.37700
N1304       N  0.50009066  0.17459054  0.01962261    -0.40000
N1305       N  0.55803653  0.15121095  0.07393387    -0.39800
N1306       N  0.56782591  0.09232025  0.04551020    -0.37400
N1307       N  0.45430630  0.08081297  0.03180272    -0.38500
N1308       N  0.44506698  0.13878135  0.06179155    -0.40200
C1309       C  0.36312221  0.06535707  0.46579107    -0.05100
C1310       C  0.35165105  0.06890315  0.48563979     0.09100
C1311       C  0.36130822  0.06252287  0.50576611    -0.02500
C1312       C  0.38284585  0.05390952  0.50626784    -0.00700
C1313       C  0.39505710  0.05139380  0.48646923    -0.04400
C1314       C  0.38468101  0.05653624  0.46611955     0.02700
C1315       C  0.33068976  0.08192756  0.48600997     0.09500
C1316       C  0.34913043  0.06541160  0.52613618     0.35400
C1317       C  0.39638546  0.05382636  0.44548222     0.38800
C1318       C  0.31007378  0.07190752  0.48240717    -0.04700
C1319       C  0.29035019  0.08383797  0.48604200     0.02400
C1320       C  0.29114086  0.10551411  0.49470605    -0.04300
C1321       C  0.31213089  0.11596859  0.49639938    -0.00600
C1322       C  0.33160897  0.10426795  0.49186663    -0.03100
C1323       C  0.30924329  0.04904182  0.47569308     0.36100
C1324       C  0.31424908  0.13869978  0.50336877     0.39800
C1325       C  0.26954549  0.07352580  0.48073836     0.38900
C1326       C  0.35289300  0.11501725  0.49404028     0.35800
C1327       C  0.35294229  0.07150051  0.44507167     0.36500
C1328       C  0.39223323  0.04764576  0.52736719     0.39700
N1329       N  0.25324998  0.06506584  0.47563313    -0.38300
N1330       N  0.30866599  0.03076753  0.47039724    -0.39900
N1331       N  0.31659904  0.15651516  0.50963654    -0.37700
N1332       N  0.36986519  0.12351186  0.49576473    -0.40000
N1333       N  0.33937100  0.06775969  0.54232634    -0.39800
N1334       N  0.39969336  0.04282056  0.54424232    -0.37400
N1335       N  0.40565236  0.05164459  0.42897736    -0.38500
N1336       N  0.34477369  0.07635861  0.42854351    -0.40200
C1337       C  0.98274813  0.87721718  0.58251108    -0.05100
C1338       C  0.98428417  0.86001618  0.56699816     0.09100
C1339       C  0.98482744  0.86494781  0.54434212    -0.02500
C1340       C  0.98399541  0.88699091  0.53716213    -0.00700
C1341       C  0.98257494  0.90441212  0.55266742    -0.04400
C1342       C  0.98193352  0.89935780  0.57540850     0.02700
C1343       C  0.98581622  0.83661809  0.57452750     0.09500
C1344       C  0.98637525  0.84722379  0.52841312     0.35400
C1345       C  0.97965674  0.91681731  0.59149926     0.38800
C1346       C  0.96674193  0.82355322  0.57624854    -0.04700
C1347       C  0.96826212  0.80169916  0.58397366     0.02400
C1348       C  0.98861564  0.79347777  0.59217046    -0.04300
C1349       C  0.00801513  0.80521807  0.58627025    -0.00600
C1350       C  0.00654918  0.82702594  0.57842131    -0.03100
C1351       C  0.94553123  0.83268216  0.57016977     0.36100
C1352       C  0.02933027  0.79446648  0.58624543     0.39800
C1353       C  0.94928628  0.78734873  0.58175489     0.38900
C1354       C  0.02639192  0.83967338  0.57430193     0.35800
C1355       C  0.98182688  0.87200972  0.60580652     0.36500
C1356       C  0.98522215  0.89163031  0.51372553     0.39700
N1357       N  0.93417899  0.77588143  0.57987546    -0.38300
N1358       N  0.92860787  0.84000704  0.56538479    -0.39900
N1359       N  0.04637076  0.78595457  0.58616035    -0.37700
N1360       N  0.04217954  0.84982390  0.57102050    -0.40000
N1361       N  0.98759708  0.83305561  0.51575500    -0.39800
N1362       N  0.98613406  0.89528947  0.49503544    -0.37400
N1363       N  0.97779800  0.93073839  0.60435362    -0.38500
N1364       N  0.98105170  0.86774147  0.62436986    -0.40200
C1365       C  0.13129657  0.06871479  0.49064469    -0.05100
C1366       C  0.14373711  0.07380705  0.50961841     0.09100
C1367       C  0.13473290  0.06940684  0.53063157    -0.02500
C1368       C  0.11365951  0.05965750  0.53266163    -0.00700
C1369       C  0.10109986  0.05461032  0.51365985    -0.04400
C1370       C  0.11014142  0.05915883  0.49261608     0.02700
C1371       C  0.16622950  0.08409313  0.50750416     0.09500
C1372       C  0.14698995  0.07548201  0.55022142     0.35400
C1373       C  0.09801632  0.05333875  0.47286003     0.38800
C1374       C  0.16833384  0.10663292  0.50229617    -0.04700
C1375       C  0.18934235  0.11657423  0.50135974     0.02400
C1376       C  0.20862337  0.10404492  0.50541390    -0.04300
C1377       C  0.20644659  0.08160207  0.51105622    -0.00600
C1378       C  0.18540637  0.07157809  0.51165273    -0.03100
C1379       C  0.14875043  0.11985563  0.49886620     0.36100
C1380       C  0.22558372  0.06930327  0.51823158     0.39800
C1381       C  0.19100959  0.14008394  0.49739865     0.38900
C1382       C  0.18336472  0.04850228  0.51736052     0.35800
C1383       C  0.14031125  0.07343465  0.46902916     0.36500
C1384       C  0.10466676  0.05547508  0.55439900     0.39700
N1385       N  0.19230836  0.15883750  0.49433955    -0.38300
N1386       N  0.13313598  0.13042128  0.49616564    -0.39900
N1387       N  0.24072267  0.05944922  0.52428898    -0.37700
N1388       N  0.18164558  0.03011953  0.52202906    -0.40000
N1389       N  0.15678361  0.08040479  0.56581722    -0.39800
N1390       N  0.09751148  0.05209098  0.57173941    -0.37400
N1391       N  0.08838772  0.04865324  0.45708700    -0.38500
N1392       N  0.14751611  0.07737819  0.45183070    -0.40200
C1393       C  0.43012310  0.01807286  0.17844452    -0.05100
C1394       C  0.41979505  0.00959062  0.15952163     0.09100
C1395       C  0.39757274  0.00332104  0.16056488    -0.02500
C1396       C  0.38590649  0.00474848  0.18058250    -0.00700
C1397       C  0.39693874  0.01013496  0.20061510    -0.04400
C1398       C  0.41861666  0.01907072  0.19868380     0.02700
C1399       C  0.43131305  0.00957285  0.13772355     0.09500
C1400       C  0.38643882  0.99609606  0.14063968     0.35400
C1401       C  0.42857354  0.03127251  0.21663055     0.38800
C1402       C  0.44081763  0.99005825  0.12952294    -0.04700
C1403       C  0.44978478  0.98956992  0.10808343     0.02400
C1404       C  0.44937436  0.00864074  0.09478195    -0.04300
C1405       C  0.44014874  0.02826253  0.10314250    -0.00600
C1406       C  0.43110771  0.02869993  0.12452709    -0.03100
C1407       C  0.44128829  0.97049227  0.14318626     0.36100
C1408       C  0.43924990  0.04783610  0.08949083     0.39800
C1409       C  0.45987363  0.96958269  0.09985259     0.38900
C1410       C  0.42118402  0.04872570  0.13288793     0.35800
C1411       C  0.45252479  0.02623887  0.17688593     0.36500
C1412       C  0.36216995  0.00349494  0.17934905     0.39700
N1413       N  0.46798392  0.95369308  0.09322365    -0.38300
N1414       N  0.44168190  0.95489435  0.15412242    -0.39900
N1415       N  0.43837303  0.06351064  0.07869785    -0.37700
N1416       N  0.41326665  0.06465432  0.13965433    -0.40000
N1417       N  0.37763294  0.99031449  0.12475465    -0.39800
N1418       N  0.34328807  0.00273855  0.17713784    -0.37400
N1419       N  0.43670829  0.04115582  0.23074713    -0.38500
N1420       N  0.47037350  0.03278197  0.17557792    -0.40200
C1421       C  0.41144199  0.97649711  0.31481885    -0.05100
C1422       C  0.41977466  0.99482644  0.32638598     0.09100
C1423       C  0.42079231  0.01550766  0.31582600    -0.02500
C1424       C  0.41160094  0.01824565  0.29464111    -0.00700
C1425       C  0.40146644  0.00028958  0.28394704    -0.04400
C1426       C  0.40338872  0.97906859  0.29316539     0.02700
C1427       C  0.42716134  0.99245585  0.34981044     0.09500
C1428       C  0.43100520  0.03399871  0.32691836     0.35400
C1429       C  0.39795618  0.95986495  0.28009819     0.38800
C1430       C  0.44927791  0.98738883  0.35475291    -0.04700
C1431       C  0.45630533  0.98588576  0.37689313     0.02400
C1432       C  0.44125244  0.98969151  0.39426434    -0.04300
C1433       C  0.41893335  0.99409788  0.38922441    -0.00600
C1434       C  0.41194263  0.99545144  0.36708571    -0.03100
C1435       C  0.46485478  0.98409725  0.33697441     0.36100
C1436       C  0.40299670  0.99669803  0.40681996     0.39800
C1437       C  0.47922893  0.98122825  0.38172651     0.38900
C1438       C  0.38905613  0.00001602  0.36198269     0.35800
C1439       C  0.41057306  0.95516407  0.32547073     0.36500
C1440       C  0.41253749  0.03952289  0.28383010     0.39700
N1441       N  0.49750094  0.97745830  0.38560436    -0.38300
N1442       N  0.47725320  0.98151445  0.32274929    -0.39900
N1443       N  0.39024762  0.99867067  0.42083609    -0.37700
N1444       N  0.37081200  0.00360454  0.35781838    -0.40000
N1445       N  0.43927461  0.04872691  0.33571975    -0.39800
N1446       N  0.41318991  0.05650191  0.27521343    -0.37400
N1447       N  0.39388695  0.94447541  0.26964418    -0.38500
N1448       N  0.40966786  0.93822452  0.33413870    -0.40200
C1449       C  0.14024536  0.45444958  0.01482296    -0.05100
C1450       C  0.14292978  0.43220748  0.00891281     0.09100
C1451       C  0.12424126  0.41893601  0.00528325    -0.02500
C1452       C  0.10295443  0.42746928  0.00870219    -0.00700
C1453       C  0.09999912  0.45000322  0.01412709    -0.04400
C1454       C  0.11894397  0.46351447  0.01682029     0.02700
C1455       C  0.16541363  0.42219184  0.00796084     0.09500
C1456       C  0.12701115  0.39630192  0.99817590     0.35400
C1457       C  0.11681857  0.48688932  0.02117471     0.38800
C1458       C  0.17199240  0.40735152  0.02452994    -0.04700
C1459       C  0.19242885  0.39651997  0.02311616     0.02400
C1460       C  0.20753685  0.40209283  0.00622045    -0.04300
C1461       C  0.20076396  0.41694439  0.98947755    -0.00600
C1462       C  0.17965894  0.42663126  0.99018940    -0.03100
C1463       C  0.15761377  0.40328993  0.04321579     0.36100
C1464       C  0.21487952  0.42117855  0.97066780     0.39800
C1465       C  0.19688538  0.37902758  0.03866461     0.38900
C1466       C  0.17239313  0.44087603  0.97243625     0.35800
C1467       C  0.15950041  0.46792918  0.01917485     0.36500
C1468       C  0.08431704  0.41253853  0.00774929     0.39700
N1469       N  0.19890211  0.36469216  0.05104754    -0.38300
N1470       N  0.14616720  0.40013387  0.05811757    -0.39900
N1471       N  0.22606236  0.42452895  0.95560958    -0.37700
N1472       N  0.16656489  0.45221052  0.95826206    -0.40000
N1473       N  0.12930571  0.37829167  0.99246396    -0.39800
N1474       N  0.06953466  0.40052499  0.00718620    -0.37400
N1475       N  0.11525426  0.50555052  0.02460896    -0.38500
N1476       N  0.17488422  0.47861787  0.02267557    -0.40200
C1477       C  0.32234623  0.42813813  0.01854324    -0.05100
C1478       C  0.33324532  0.42819105  0.99813116     0.09100
C1479       C  0.32151460  0.42271796  0.97893889    -0.02500
C1480       C  0.29982494  0.41459880  0.98056434    -0.00700
C1481       C  0.29069491  0.40953453  0.00158897    -0.04400
C1482       C  0.30092016  0.41936473  0.02022778     0.02700
C1483       C  0.35713638  0.43374277  0.99703037     0.09500
C1484       C  0.33189281  0.42524786  0.95756963     0.35400
C1485       C  0.28924199  0.42201354  0.04081194     0.38800
C1486       C  0.37284475  0.41767212  0.00284951    -0.04700
C1487       C  0.39543306  0.42286775  0.00270895     0.02400
C1488       C  0.40246476  0.44415040  0.99647333    -0.04300
C1489       C  0.38665167  0.46027299  0.99070636    -0.00600
C1490       C  0.36404786  0.45502266  0.99092274    -0.03100
C1491       C  0.36568090  0.39572582  0.00899749     0.36100
C1492       C  0.39347925  0.48263645  0.98579146     0.39800
C1493       C  0.41138065  0.40620158  0.00888707     0.38900
C1494       C  0.34782408  0.47158754  0.98524582     0.35800
C1495       C  0.33329286  0.43715736  0.03779189     0.36500
C1496       C  0.28664131  0.41324121  0.96068157     0.39700
N1497       N  0.42401292  0.39289028  0.01397419    -0.38300
N1498       N  0.35993913  0.37823663  0.01389552    -0.39900
N1499       N  0.39888319  0.50050980  0.98202034    -0.37700
N1500       N  0.33485860  0.48476118  0.98065770    -0.40000
N1501       N  0.34024410  0.42735015  0.94057039    -0.39800
N1502       N  0.27629045  0.41222012  0.94470054    -0.37400
N1503       N  0.28057735  0.42478842  0.05752662    -0.38500
N1504       N  0.34201472  0.44447778  0.05307501    -0.40200
C1505       C  0.18923307  0.39097661  0.26091847    -0.05100
C1506       C  0.18070532  0.40130927  0.24190074     0.09100
C1507       C  0.18096994  0.38994434  0.22160837    -0.02500
C1508       C  0.18958689  0.36835520  0.22039505    -0.00700
C1509       C  0.19777147  0.35787616  0.23953601    -0.04400
C1510       C  0.19747789  0.36930338  0.25981579     0.02700
C1511       C  0.17042912  0.42374452  0.24371274     0.09500
C1512       C  0.17201707  0.40036577  0.20206557     0.35400
C1513       C  0.20603958  0.35892317  0.27957148     0.38800
C1514       C  0.18157617  0.44259874  0.23618035    -0.04700
C1515       C  0.17195338  0.46370326  0.23837314     0.02400
C1516       C  0.15158265  0.46651847  0.24980358    -0.04300
C1517       C  0.14076672  0.44718063  0.25768478    -0.00600
C1518       C  0.14976247  0.42609241  0.25384910    -0.03100
C1519       C  0.20317425  0.44021640  0.22624698     0.36100
C1520       C  0.12057793  0.44819299  0.27032714     0.39800
C1521       C  0.18306367  0.48209166  0.22796623     0.38900
C1522       C  0.13764098  0.40650835  0.26033801     0.35800
C1523       C  0.18956716  0.40279252  0.28167300     0.36500
C1524       C  0.18919607  0.35658993  0.19962151     0.39700
N1525       N  0.19238243  0.49654393  0.21974828    -0.38300
N1526       N  0.22042496  0.43828423  0.21840773    -0.39900
N1527       N  0.10428486  0.44790918  0.28019634    -0.37700
N1528       N  0.12797012  0.39088646  0.26537673    -0.40000
N1529       N  0.16491634  0.40873700  0.18647673    -0.39800
N1530       N  0.18881541  0.34715848  0.18307319    -0.37400
N1531       N  0.21279955  0.35065964  0.29536702    -0.38500
N1532       N  0.18977787  0.41231232  0.29816950    -0.40200
C1533       C  0.22845816  0.15848445  0.42819642    -0.05100
C1534       C  0.24006756  0.17815543  0.42408106     0.09100
C1535       C  0.25445815  0.18642619  0.44025119    -0.02500
C1536       C  0.25802728  0.17462608  0.45991343    -0.00700
C1537       C  0.24525537  0.15569862  0.46503960    -0.04400
C1538       C  0.23057109  0.14755514  0.44867470     0.02700
C1539       C  0.23844012  0.18930172  0.40206342     0.09500
C1540       C  0.26590268  0.20709048  0.43650549     0.35400
C1541       C  0.21765222  0.12782701  0.45214720     0.38800
C1542       C  0.21879461  0.19983775  0.39551402    -0.04700
C1543       C  0.21694617  0.20905766  0.37421992     0.02400
C1544       C  0.23532176  0.20926532  0.35981053    -0.04300
C1545       C  0.25538064  0.19968169  0.36700071    -0.00600
C1546       C  0.25662043  0.18904903  0.38759964    -0.03100
C1547       C  0.20041664  0.20109021  0.41072401     0.36100
C1548       C  0.27509570  0.20118100  0.35356269     0.39800
C1549       C  0.19569118  0.21705607  0.36686492     0.38900
C1550       C  0.27662917  0.17754953  0.39383532     0.35800
C1551       C  0.21450025  0.14928615  0.41108687     0.36500
C1552       C  0.27643955  0.18111773  0.47360022     0.39700
N1553       N  0.17856104  0.22304393  0.36106633    -0.38300
N1554       N  0.18579447  0.20208317  0.42289235    -0.39900
N1555       N  0.29085254  0.20243952  0.34292478    -0.37700
N1556       N  0.29255716  0.16839015  0.39886830    -0.40000
N1557       N  0.27502380  0.22355102  0.43354445    -0.39800
N1558       N  0.29162713  0.18675324  0.48360425    -0.37400
N1559       N  0.20728418  0.11193636  0.45386962    -0.38500
N1560       N  0.20336670  0.14200942  0.39743526    -0.40200
C1561       C  0.41397691  0.25020977  0.15158808    -0.05100
C1562       C  0.41222706  0.24412154  0.17393962     0.09100
C1563       C  0.43137052  0.23805012  0.18569757    -0.02500
C1564       C  0.45196364  0.23702327  0.17489519    -0.00700
C1565       C  0.45381299  0.24339674  0.15261105    -0.04400
C1566       C  0.43461908  0.24985942  0.14097333     0.02700
C1567       C  0.39001284  0.24294226  0.18472201     0.09500
C1568       C  0.42971040  0.23244361  0.20885494     0.35400
C1569       C  0.43597559  0.25550380  0.11776347     0.38800
C1570       C  0.37970374  0.22235163  0.18807090    -0.04700
C1571       C  0.35882621  0.22116523  0.19824849     0.02400
C1572       C  0.34771970  0.24064312  0.20439014    -0.04300
C1573       C  0.35798471  0.26124086  0.20088454    -0.00600
C1574       C  0.37910004  0.26236024  0.19124024    -0.03100
C1575       C  0.39040382  0.20240885  0.18052656     0.36100
C1576       C  0.34715012  0.28128914  0.20796304     0.39800
C1577       C  0.34861291  0.19989925  0.20200098     0.38900
C1578       C  0.38969169  0.28351223  0.18805972     0.35800
C1579       C  0.39436524  0.25619896  0.13931079     0.36500
C1580       C  0.47071356  0.22746390  0.18612625     0.39700
N1581       N  0.34052939  0.18292661  0.20509814    -0.38300
N1582       N  0.39893286  0.18653868  0.17439471    -0.39900
N1583       N  0.33849271  0.29723925  0.21369438    -0.37700
N1584       N  0.39815409  0.30037684  0.18545635    -0.40000
N1585       N  0.42827400  0.22807980  0.22735599    -0.39800
N1586       N  0.48548100  0.21941651  0.19509003    -0.37400
N1587       N  0.43706316  0.26002899  0.09927464    -0.38500
N1588       N  0.37872197  0.26099911  0.12953525    -0.40200
C1589       C  0.33995521  0.07915133  0.28236780    -0.05100
C1590       C  0.32820658  0.09078138  0.26609143     0.09100
C1591       C  0.32535652  0.08134432  0.24513648    -0.02500
C1592       C  0.33514619  0.06093610  0.24004787    -0.00700
C1593       C  0.34856801  0.04984004  0.25572909    -0.04400
C1594       C  0.34972789  0.05857845  0.27742652     0.02700
C1595       C  0.31872561  0.11309191  0.27075823     0.09500
C1596       C  0.31250770  0.09293922  0.22863113     0.35400
C1597       C  0.36032301  0.04661484  0.29510392     0.38800
C1598       C  0.33169638  0.13206425  0.26766619    -0.04700
C1599       C  0.32231964  0.15320607  0.26987611     0.02400
C1600       C  0.29949943  0.15565244  0.27449374    -0.04300
C1601       C  0.28669925  0.13639240  0.27820451    -0.00600
C1602       C  0.29637794  0.11531234  0.27654013    -0.03100
C1603       C  0.35466131  0.12975734  0.26151933     0.36100
C1604       C  0.26329345  0.13791946  0.28271850     0.39800
C1605       C  0.33646097  0.17233962  0.26761261     0.38900
C1606       C  0.28318159  0.09572687  0.28013219     0.35800
C1607       C  0.34216352  0.08858734  0.30420646     0.36500
C1608       C  0.33055632  0.05112833  0.21876531     0.39700
N1609       N  0.34778704  0.18755527  0.26578903    -0.38300
N1610       N  0.37294069  0.12788407  0.25650520    -0.39900
N1611       N  0.24461482  0.13902852  0.28631216    -0.37700
N1612       N  0.27269933  0.08007507  0.28297204    -0.40000
N1613       N  0.30224524  0.10227845  0.21556289    -0.39800
N1614       N  0.32672776  0.04360110  0.20169340    -0.37400
N1615       N  0.36792541  0.03740336  0.30996173    -0.38500
N1616       N  0.34397186  0.09615312  0.32159986    -0.40200
C1617       C  0.24695623  0.31872899  0.06751068    -0.05100
C1618       C  0.24693423  0.33004485  0.08778457     0.09100
C1619       C  0.24573498  0.35318338  0.08801491    -0.02500
C1620       C  0.24601818  0.36501719  0.06809301    -0.00700
C1621       C  0.24818282  0.35382185  0.04779373    -0.04400
C1622       C  0.24757460  0.33060066  0.04749756     0.02700
C1623       C  0.24983800  0.31790792  0.10899356     0.09500
C1624       C  0.24458697  0.36481777  0.10884374     0.35400
C1625       C  0.24789332  0.31886341  0.02675371     0.38800
C1626       C  0.27128207  0.31384784  0.11695356    -0.04700
C1627       C  0.27440032  0.30466034  0.13805886     0.02400
C1628       C  0.25601546  0.29976863  0.15146515    -0.04300
C1629       C  0.23450706  0.30277574  0.14295910    -0.00600
C1630       C  0.23144927  0.31188399  0.12179447    -0.03100
C1631       C  0.29014936  0.31973844  0.10353801     0.36100
C1632       C  0.21550884  0.29586984  0.15570777     0.39800
C1633       C  0.29656089  0.30094164  0.14617339     0.38900
C1634       C  0.20941317  0.31526521  0.11322682     0.35800
C1635       C  0.24679949  0.29488477  0.06736169     0.36500
C1636       C  0.24223592  0.38856815  0.06840424     0.39700
N1637       N  0.31425656  0.29788403  0.15255921    -0.38300
N1638       N  0.30508533  0.32451545  0.09271758    -0.39900
N1639       N  0.20038227  0.29021574  0.16582492    -0.37700
N1640       N  0.19181527  0.31790477  0.10640198    -0.40000
N1641       N  0.24369434  0.37406102  0.12547362    -0.39800
N1642       N  0.23828270  0.40718033  0.06878528    -0.37400
N1643       N  0.24788277  0.30920262  0.01034442    -0.38500
N1644       N  0.24660324  0.27584839  0.06730813    -0.40200
C1645       C  0.97665444  0.33124224  0.39828803    -0.05100
C1646       C  0.98241118  0.33397741  0.42064001     0.09100
C1647       C  0.98957853  0.31556023  0.43295004    -0.02500
C1648       C  0.99204363  0.29481935  0.42267982    -0.00700
C1649       C  0.98726521  0.29235917  0.40008726    -0.04400
C1650       C  0.97898110  0.31053833  0.38808772     0.02700
C1651       C  0.98200704  0.35652403  0.43079399     0.09500
C1652       C  0.99508129  0.31817591  0.45603374     0.35400
C1653       C  0.97306170  0.30798367  0.36506297     0.38800
C1654       C  0.96187885  0.36629558  0.43700122    -0.04700
C1655       C  0.96147615  0.38796765  0.44543083     0.02400
C1656       C  0.98133563  0.39982420  0.44851667    -0.04300
C1657       C  0.00153150  0.38979167  0.44266689    -0.00600
C1658       C  0.00178397  0.36848587  0.43337330    -0.03100
C1659       C  0.94152478  0.35406126  0.43446477     0.36100
C1660       C  0.02218999  0.40101128  0.44693705     0.39800
C1661       C  0.94047370  0.39838648  0.44989795     0.38900
C1662       C  0.02239545  0.35897379  0.42599889     0.35800
C1663       C  0.96919213  0.35000391  0.38552974     0.36500
C1664       C  0.00037235  0.27626160  0.43512892     0.39700
N1665       N  0.92367612  0.40672403  0.45320135    -0.38300
N1666       N  0.92530123  0.34427811  0.43241291    -0.39900
N1667       N  0.03867879  0.40988087  0.45050038    -0.37700
N1668       N  0.03877654  0.35138471  0.41995037    -0.40000
N1669       N  0.99953822  0.32032179  0.47444208    -0.39800
N1670       N  0.00697983  0.26151875  0.44521844    -0.37400
N1671       N  0.96809043  0.30589512  0.34677646    -0.38500
N1672       N  0.96325934  0.36499491  0.37537641    -0.40200
C1673       C  0.00153291  0.14507926  0.45817754    -0.05100
C1674       C  0.00438531  0.14937921  0.43554577     0.09100
C1675       C  0.01011875  0.13203144  0.42118316    -0.02500
C1676       C  0.01290582  0.11045816  0.42941394    -0.00700
C1677       C  0.01033101  0.10617871  0.45216152    -0.04400
C1678       C  0.00454287  0.12360579  0.46648204     0.02700
C1679       C  0.00157999  0.17226086  0.42675551     0.09500
C1680       C  0.01331118  0.13650050  0.39792571     0.35400
C1681       C  0.00073332  0.11928576  0.48968174     0.38800
C1682       C  0.01895481  0.18752263  0.42836301    -0.04700
C1683       C  0.01719673  0.20829109  0.41814775     0.02400
C1684       C  0.99834705  0.21367377  0.40535517    -0.04300
C1685       C  0.98016547  0.19905832  0.40551698    -0.00600
C1686       C  0.98180925  0.17847662  0.41628040    -0.03100
C1687       C  0.03900249  0.18150110  0.43989548     0.36100
C1688       C  0.95999920  0.20447851  0.39399661     0.39800
C1689       C  0.03506996  0.22398475  0.42056927     0.38900
C1690       C  0.96333889  0.16333386  0.41616233     0.35800
C1691       C  0.99520072  0.16277887  0.47285773     0.36500
C1692       C  0.01882766  0.09278437  0.41451789     0.39700
N1693       N  0.04937068  0.23644727  0.42239672    -0.38300
N1694       N  0.05499074  0.17666165  0.44907291    -0.39900
N1695       N  0.94354235  0.20835980  0.38520748    -0.37700
N1696       N  0.94863458  0.15121721  0.41617081    -0.40000
N1697       N  0.01584963  0.14015596  0.37938887    -0.39800
N1698       N  0.02350439  0.07869649  0.40259798    -0.37400
N1699       N  0.99764073  0.11575903  0.50815806    -0.38500
N1700       N  0.99012937  0.17692773  0.48453329    -0.40200
C1701       C  0.07055012  0.23947920  0.33000838    -0.05100
C1702       C  0.07930652  0.26062441  0.32649873     0.09100
C1703       C  0.06556310  0.27913889  0.32853227    -0.02500
C1704       C  0.04382670  0.27666657  0.33623678    -0.00700
C1705       C  0.03635443  0.25587074  0.34392483    -0.04400
C1706       C  0.04875492  0.23704978  0.33760113     0.02700
C1707       C  0.10249016  0.26334124  0.31887100     0.09500
C1708       C  0.07393925  0.30079268  0.32291623     0.35400
C1709       C  0.03877537  0.21536209  0.33711494     0.38800
C1710       C  0.10694565  0.26537267  0.29621319    -0.04700
C1711       C  0.12873643  0.26823245  0.28886737     0.02400
C1712       C  0.14627329  0.26967780  0.30427007    -0.04300
C1713       C  0.14164178  0.26789866  0.32704907    -0.00600
C1714       C  0.11985579  0.26431377  0.33426488    -0.03100
C1715       C  0.08898508  0.26438361  0.28045038     0.36100
C1716       C  0.15905968  0.27077280  0.34315157     0.39800
C1717       C  0.13299878  0.26894956  0.26534710     0.38900
C1718       C  0.11522832  0.26161695  0.35754699     0.35800
C1719       C  0.08409066  0.22024559  0.32598417     0.36500
C1720       C  0.02892554  0.29521560  0.33458479     0.39700
N1721       N  0.13633009  0.26951564  0.24658684    -0.38300
N1722       N  0.07459914  0.26367044  0.26796187    -0.39900
N1723       N  0.17294080  0.27327343  0.35598010    -0.37700
N1724       N  0.11152225  0.25929791  0.37609943    -0.40000
N1725       N  0.08069458  0.31803614  0.31846053    -0.39800
N1726       N  0.01727960  0.31019018  0.33301417    -0.37400
N1727       N  0.03097546  0.19798875  0.33667316    -0.38500
N1728       N  0.09497568  0.20494102  0.32289326    -0.40200
C1729       C  0.92627462  0.01558867  0.13107579    -0.05100
C1730       C  0.92312231  0.99541815  0.14215077     0.09100
C1731       C  0.92756835  0.97552243  0.13098380    -0.02500
C1732       C  0.93484239  0.97579793  0.10885606    -0.00700
C1733       C  0.93910779  0.99605061  0.09802812    -0.04400
C1734       C  0.93492306  0.01598457  0.10951972     0.02700
C1735       C  0.91476646  0.99529088  0.16549082     0.09500
C1736       C  0.92457368  0.95469212  0.14229118     0.35400
C1737       C  0.94013184  0.03712423  0.09965447     0.38800
C1738       C  0.89345760  0.98756823  0.17024024    -0.04700
C1739       C  0.88558789  0.98723341  0.19213915     0.02400
C1740       C  0.89783584  0.99737080  0.20950218    -0.04300
C1741       C  0.91904963  0.00606227  0.20415938    -0.00600
C1742       C  0.92778021  0.00383503  0.18269122    -0.03100
C1743       C  0.87921445  0.98061205  0.15230594     0.36100
C1744       C  0.93185876  0.01854200  0.21999215     0.39800
C1745       C  0.86508533  0.97569123  0.19609844     0.38900
C1746       C  0.95015454  0.01094143  0.17809125     0.35800
C1747       C  0.92035900  0.03606310  0.14186598     0.36500
C1748       C  0.93688469  0.95516656  0.09704272     0.39700
N1749       N  0.84859435  0.96639248  0.19832069    -0.38300
N1750       N  0.86782097  0.97527543  0.13798539    -0.39900
N1751       N  0.94239742  0.02849448  0.23237411    -0.37700
N1752       N  0.96795511  0.01665167  0.17440019    -0.40000
N1753       N  0.92208628  0.93809365  0.15131002    -0.39800
N1754       N  0.93825530  0.93869943  0.08758795    -0.37400
N1755       N  0.94430878  0.05401698  0.09189093    -0.38500
N1756       N  0.91561270  0.05234080  0.15051281    -0.40200
C1757       C  0.92011622  0.03041504  0.32230077    -0.05100
C1758       C  0.92036399  0.01206305  0.33641313     0.09100
C1759       C  0.91436475  0.99128603  0.32817910    -0.02500
C1760       C  0.90653458  0.98920658  0.30640906    -0.00700
C1761       C  0.90238401  0.00830923  0.29342074    -0.04400
C1762       C  0.91211179  0.02834965  0.30058794     0.02700
C1763       C  0.92923425  0.01417230  0.35925057     0.09500
C1764       C  0.91619130  0.97204225  0.34222982     0.35400
C1765       C  0.91648289  0.04606364  0.28525082     0.38800
C1766       C  0.91510372  0.01931296  0.37692678    -0.04700
C1767       C  0.92360481  0.02118619  0.39849170     0.02400
C1768       C  0.94633468  0.01792656  0.40242196    -0.04300
C1769       C  0.96039520  0.01262154  0.38460590    -0.00600
C1770       C  0.95186703  0.01090138  0.36311025    -0.03100
C1771       C  0.89183679  0.02277298  0.37281945     0.36100
C1772       C  0.98354355  0.00806122  0.38842605     0.39800
C1773       C  0.90904069  0.02703374  0.41648068     0.38900
C1774       C  0.96635424  0.00569576  0.34484754     0.35800
C1775       C  0.92830618  0.05143577  0.33014765     0.36500
C1776       C  0.90439584  0.96730726  0.29714102     0.39700
N1777       N  0.89741658  0.03169817  0.43082991    -0.38300
N1778       N  0.87328191  0.02554510  0.36948878    -0.39900
N1779       N  0.00198587  0.00435945  0.39146560    -0.37700
N1780       N  0.97783138  0.00157944  0.33021832    -0.40000
N1781       N  0.91756438  0.95676094  0.35353015    -0.39800
N1782       N  0.90272161  0.94975709  0.28995128    -0.37400
N1783       N  0.92063484  0.06043919  0.27347242    -0.38500
N1784       N  0.93479495  0.06819084  0.33645508    -0.40200
C1785       C  0.85236499  0.08651073  0.23152516    -0.05100
C1786       C  0.82918385  0.08745232  0.23205680     0.09100
C1787       C  0.81701563  0.06770325  0.23350051    -0.02500
C1788       C  0.82799414  0.04738084  0.23651401    -0.00700
C1789       C  0.85115246  0.04684004  0.23870525    -0.04400
C1790       C  0.86326004  0.06623050  0.23428921     0.02700
C1791       C  0.81790637  0.10942258  0.23214998     0.09500
C1792       C  0.79319586  0.06840323  0.23228120     0.35400
C1793       C  0.88687650  0.06516264  0.23123577     0.38800
C1794       C  0.81594017  0.12181759  0.21260168    -0.04700
C1795       C  0.80831618  0.14379011  0.21330323     0.02400
C1796       C  0.80191554  0.15342635  0.23361330    -0.04300
C1797       C  0.80299539  0.14043890  0.25306830    -0.00600
C1798       C  0.81110854  0.11868935  0.25229890    -0.03100
C1799       C  0.82217766  0.11197275  0.19177101     0.36100
C1800       C  0.79565214  0.14921910  0.27404318     0.39800
C1801       C  0.80833341  0.15671694  0.19320363     0.38900
C1802       C  0.81293449  0.10588548  0.27241606     0.35800
C1803       C  0.86502900  0.10657728  0.22875620     0.36500
C1804       C  0.81542772  0.02716162  0.23670144     0.39700
N1805       N  0.80847787  0.16701110  0.17715518    -0.38300
N1806       N  0.82711851  0.10405514  0.17517039    -0.39900
N1807       N  0.78990515  0.15618722  0.29081568    -0.37700
N1808       N  0.81438988  0.09562725  0.28841907    -0.40000
N1809       N  0.77417612  0.06894170  0.23130919    -0.39800
N1810       N  0.80511144  0.01117681  0.23596755    -0.37400
N1811       N  0.90563453  0.06465929  0.22802474    -0.38500
N1812       N  0.87503074  0.12263731  0.22653248    -0.40200
C1813       C  0.91401616  0.25515383  0.34896676    -0.05100
C1814       C  0.91172791  0.24260752  0.32961885     0.09100
C1815       C  0.92978294  0.23046816  0.32174140    -0.02500
C1816       C  0.95020336  0.23127519  0.33288273    -0.00700
C1817       C  0.95333482  0.24562662  0.35115603    -0.04400
C1818       C  0.93466293  0.25693798  0.35957684     0.02700
C1819       C  0.89019463  0.24259074  0.31750688     0.09500
C1820       C  0.92740006  0.21741624  0.30188446     0.35400
C1821       C  0.93608289  0.27057547  0.37905697     0.38800
C1822       C  0.88482198  0.26033077  0.30350072    -0.04700
C1823       C  0.86370769  0.26169833  0.29387615     0.02400
C1824       C  0.84788928  0.24505521  0.29784363    -0.04300
C1825       C  0.85351008  0.22698913  0.31144699    -0.00600
C1826       C  0.87458255  0.22580077  0.32125495    -0.03100
C1827       C  0.90106396  0.27731097  0.29920510     0.36100
C1828       C  0.83718852  0.21027952  0.31644803     0.39800
C1829       C  0.85831543  0.28028269  0.27986118     0.38900
C1830       C  0.88005107  0.20762512  0.33574006     0.35800
C1831       C  0.89491616  0.26642617  0.35784917     0.36500
C1832       C  0.96754987  0.21637307  0.32605324     0.39700
N1833       N  0.85399028  0.29517511  0.26878532    -0.38300
N1834       N  0.91409186  0.29079164  0.29580310    -0.39900
N1835       N  0.82409872  0.19704052  0.32051038    -0.37700
N1836       N  0.88445634  0.19313599  0.34730581    -0.40000
N1837       N  0.92552522  0.20712793  0.28596247    -0.39800
N1838       N  0.98125183  0.20435522  0.32056358    -0.37400
N1839       N  0.93626919  0.28133238  0.39477412    -0.38500
N1840       N  0.87960645  0.27529173  0.36487837    -0.40200
C1841       C  0.61127414  0.24169774  0.18831042    -0.05100
C1842       C  0.60139050  0.26036661  0.17870636     0.09100
C1843       C  0.61389106  0.27974881  0.17589127    -0.02500
C1844       C  0.63646101  0.28014462  0.18169435    -0.00700
C1845       C  0.64663866  0.26113812  0.19056204    -0.04400
C1846       C  0.63373674  0.24203284  0.19420697     0.02700
C1847       C  0.57916658  0.25814251  0.16812145     0.09500
C1848       C  0.60360736  0.29903211  0.16630486     0.35400
C1849       C  0.64351085  0.22256743  0.20403800     0.38800
C1850       C  0.55958473  0.26231772  0.17981188    -0.04700
C1851       C  0.53879437  0.25767202  0.17014818     0.02400
C1852       C  0.53743099  0.24880526  0.14851015    -0.04300
C1853       C  0.55745206  0.24641308  0.13636386    -0.00600
C1854       C  0.57798628  0.25056513  0.14631767    -0.03100
C1855       C  0.56095676  0.27120164  0.20192882     0.36100
C1856       C  0.55754497  0.23970491  0.11342997     0.39800
C1857       C  0.51912581  0.26197701  0.18286320     0.38900
C1858       C  0.59822658  0.24648804  0.13421233     0.35800
C1859       C  0.59839384  0.22182021  0.19142248     0.36500
C1860       C  0.64945402  0.29965933  0.17718893     0.39700
N1861       N  0.50377916  0.26610204  0.19335543    -0.38300
N1862       N  0.56210408  0.27838933  0.21953724    -0.39900
N1863       N  0.55820262  0.23373819  0.09535030    -0.37700
N1864       N  0.61438874  0.24316225  0.12470462    -0.40000
N1865       N  0.59531629  0.31440350  0.15870087    -0.39800
N1866       N  0.65982785  0.31519716  0.17344591    -0.37400
N1867       N  0.65135171  0.20702125  0.21176967    -0.38500
N1868       N  0.58809488  0.20598221  0.19386901    -0.40200
C1869       C  0.00187999  0.31098369  0.93932082    -0.05100
C1870       C  0.00647389  0.33078618  0.92799842     0.09100
C1871       C  0.00877899  0.33057130  0.90489555    -0.02500
C1872       C  0.00600848  0.31086158  0.89315133    -0.00700
C1873       C  0.99945506  0.29145043  0.90420743    -0.04400
C1874       C  0.99808873  0.29135625  0.92739239     0.02700
C1875       C  0.00825243  0.35222800  0.93995810     0.09500
C1876       C  0.01337035  0.35084565  0.89309823     0.35400
C1877       C  0.99258407  0.27120645  0.93889937     0.38800
C1878       C  0.02899885  0.36228812  0.94284372    -0.04700
C1879       C  0.03042183  0.38408892  0.95068431     0.02400
C1880       C  0.01104798  0.39592941  0.95584192    -0.04300
C1881       C  0.99033454  0.38547287  0.95379079    -0.00600
C1882       C  0.98897424  0.36367860  0.94595243    -0.03100
C1883       C  0.04885035  0.35026466  0.93727015     0.36100
C1884       C  0.97038481  0.39699403  0.96006442     0.39800
C1885       C  0.05179163  0.39464272  0.95236780     0.38900
C1886       C  0.96768366  0.35307303  0.94374567     0.35800
C1887       C  0.00079131  0.31095815  0.96316281     0.36500
C1888       C  0.01098016  0.31034849  0.86978400     0.39700
N1889       N  0.06885588  0.40304180  0.95358662    -0.38300
N1890       N  0.06464608  0.34062500  0.93279348    -0.39900
N1891       N  0.95447941  0.40619007  0.96506165    -0.37700
N1892       N  0.95073858  0.34450822  0.94212255    -0.40000
N1893       N  0.01691422  0.36704968  0.88372415    -0.39800
N1894       N  0.01554155  0.30994476  0.85128386    -0.37400
N1895       N  0.98831990  0.25514406  0.94821335    -0.38500
N1896       N  0.99999131  0.31098212  0.98220657    -0.40200
C1897       C  0.01251983  0.17729838  0.90795650    -0.05100
C1898       C  0.99507465  0.17053637  0.92170356     0.09100
C1899       C  0.97742926  0.18501766  0.92579131    -0.02500
C1900       C  0.97667629  0.20572984  0.91530960    -0.00700
C1901       C  0.99362477  0.21216020  0.90062349    -0.04400
C1902       C  0.01195419  0.19811538  0.89764848     0.02700
C1903       C  0.99497124  0.14781340  0.93125844     0.09500
C1904       C  0.95980684  0.17833567  0.94046222     0.35400
C1905       C  0.02999472  0.20436990  0.88337587     0.38800
C1906       C  0.00874816  0.14258281  0.94924032    -0.04700
C1907       C  0.00929074  0.12093177  0.95759645     0.02400
C1908       C  0.99576164  0.10446709  0.94825237    -0.04300
C1909       C  0.98185396  0.10973514  0.93037889    -0.00600
C1910       C  0.98154373  0.13132370  0.92183598    -0.03100
C1911       C  0.02241553  0.15951877  0.95906608     0.36100
C1912       C  0.96863172  0.09269122  0.92012850     0.39800
C1913       C  0.02364943  0.11563167  0.97596196     0.38900
C1914       C  0.96778419  0.13650715  0.90299703     0.35800
C1915       C  0.03070371  0.16239439  0.90375604     0.36500
C1916       C  0.95837944  0.22042914  0.91965619     0.39700
N1917       N  0.03513772  0.11136332  0.99056858    -0.38300
N1918       N  0.03334572  0.17304981  0.96683627    -0.39900
N1919       N  0.95818623  0.07903991  0.91191335    -0.37700
N1920       N  0.95682450  0.14070120  0.88797071    -0.40000
N1921       N  0.94573887  0.17290246  0.95210805    -0.39800
N1922       N  0.94379000  0.23216909  0.92308400    -0.37400
N1923       N  0.04493289  0.20856258  0.87233735    -0.38500
N1924       N  0.04517533  0.15048706  0.90041004    -0.40200
C1925       C  0.06290966  0.24228781  0.82428497    -0.05100
C1926       C  0.08028377  0.25197550  0.83612786     0.09100
C1927       C  0.07593448  0.26261732  0.85621861    -0.02500
C1928       C  0.05421233  0.26391937  0.86440055    -0.00700
C1929       C  0.03644712  0.25390938  0.85275244    -0.04400
C1930       C  0.04130900  0.24252962  0.83281709     0.02700
C1931       C  0.10338677  0.25068430  0.82765217     0.09500
C1932       C  0.09405524  0.27220342  0.86858091     0.35400
C1933       C  0.02464769  0.22953888  0.82165759     0.38800
C1934       C  0.11324325  0.26930257  0.81793012    -0.04700
C1935       C  0.13529067  0.26845068  0.81077103     0.02400
C1936       C  0.14777010  0.24891820  0.81339323    -0.04300
C1937       C  0.13763899  0.23008586  0.82268794    -0.00600
C1938       C  0.11552083  0.23099683  0.82975052    -0.03100
C1939       C  0.10054090  0.28932449  0.81512871     0.36100
C1940       C  0.15006640  0.20992140  0.82565706     0.39800
C1941       C  0.14480989  0.28754365  0.79998777     0.38900
C1942       C  0.10520286  0.21169868  0.83933469     0.35800
C1943       C  0.06737939  0.23197852  0.80320206     0.36500
C1944       C  0.05091883  0.27559784  0.88491615     0.39700
N1945       N  0.15240246  0.30274593  0.79136258    -0.38300
N1946       N  0.09039341  0.30528266  0.81292828    -0.39900
N1947       N  0.15992642  0.19380283  0.82801864    -0.37700
N1948       N  0.09686052  0.19630128  0.84684253    -0.40000
N1949       N  0.10849794  0.27985082  0.87839079    -0.39800
N1950       N  0.04950997  0.28474576  0.90156513    -0.37400
N1951       N  0.01150579  0.21910206  0.81262832    -0.38500
N1952       N  0.07101575  0.22386407  0.78636017    -0.40200
C1953       C  0.25126880  0.33197183  0.88886222    -0.05100
C1954       C  0.24188240  0.31809231  0.90495327     0.09100
C1955       C  0.23261541  0.29780949  0.89867324    -0.02500
C1956       C  0.23293207  0.29124290  0.87636609    -0.00700
C1957       C  0.24266017  0.30499069  0.86012142    -0.04400
C1958       C  0.25162784  0.32553206  0.86655911     0.02700
C1959       C  0.24191840  0.32515850  0.92854395     0.09500
C1960       C  0.22301206  0.28360168  0.91530475     0.35400
C1961       C  0.26068039  0.34046133  0.85022782     0.38800
C1962       C  0.22372657  0.33653708  0.93729562    -0.04700
C1963       C  0.22542146  0.34713920  0.95791862     0.02400
C1964       C  0.24556414  0.34669681  0.96967918    -0.04300
C1965       C  0.26272381  0.33283067  0.96206420    -0.00600
C1966       C  0.26094646  0.32227495  0.94148187    -0.03100
C1967       C  0.20359659  0.33815737  0.92451780     0.36100
C1968       C  0.28245402  0.32974629  0.97521703     0.39800
C1969       C  0.20657122  0.35904896  0.96627380     0.38900
C1970       C  0.27904692  0.30916931  0.93311854     0.35800
C1971       C  0.26055996  0.35300144  0.89536424     0.36500
C1972       C  0.22380073  0.26999135  0.87040876     0.39700
N1973       N  0.19095845  0.36797167  0.97250732    -0.38300
N1974       N  0.18754850  0.33938154  0.91430532    -0.39900
N1975       N  0.29818460  0.32733195  0.98571197    -0.37700
N1976       N  0.29345355  0.29870364  0.92639029    -0.40000
N1977       N  0.21536476  0.27230673  0.92861570    -0.39800
N1978       N  0.21643299  0.25307135  0.86568873    -0.37400
N1979       N  0.26790482  0.35239443  0.83723689    -0.38500
N1980       N  0.26796910  0.36973173  0.90064752    -0.40200
C1981       C  0.25546635  0.15009723  0.59115869    -0.05100
C1982       C  0.25731722  0.17293850  0.59376758     0.09100
C1983       C  0.25992142  0.18648245  0.57522623    -0.02500
C1984       C  0.25953505  0.17738289  0.55380589    -0.00700
C1985       C  0.25524678  0.15444717  0.55068112    -0.04400
C1986       C  0.25488745  0.14081040  0.56995038     0.02700
C1987       C  0.25660681  0.18261803  0.61630772     0.09500
C1988       C  0.26345593  0.20992461  0.57837176     0.35400
C1989       C  0.25439349  0.11694292  0.56832708     0.38800
C1990       C  0.27550678  0.18229019  0.62975545    -0.04700
C1991       C  0.27411996  0.18893706  0.65193627     0.02400
C1992       C  0.25394425  0.19696782  0.66050399    -0.04300
C1993       C  0.23538559  0.19855356  0.64642476    -0.00600
C1994       C  0.23663485  0.19095402  0.62456182    -0.03100
C1995       C  0.29636555  0.17503025  0.62067656     0.36100
C1996       C  0.21516919  0.20871033  0.65405326     0.39800
C1997       C  0.29330684  0.18661780  0.66601546     0.38900
C1998       C  0.21730923  0.19151140  0.61049785     0.35800
C1999       C  0.25403443  0.13609821  0.61052179     0.36500
C2000       C  0.26569302  0.19189506  0.53597821     0.39700
N2001       N  0.30862160  0.18468144  0.67720641    -0.38300
N2002       N  0.31301433  0.16940082  0.61334607    -0.39900
N2003       N  0.19907434  0.21693221  0.66004554    -0.37700
N2004       N  0.20195196  0.19188991  0.59921056    -0.40000
N2005       N  0.26630512  0.22858073  0.58089034    -0.39800
N2006       N  0.27075886  0.20449539  0.52260815    -0.37400
N2007       N  0.25403109  0.09794153  0.56713156    -0.38500
N2008       N  0.25296177  0.12501809  0.62599540    -0.40200
C2009       C  0.50435757  0.32764221  0.59876910    -0.05100
C2010       C  0.50141199  0.32850812  0.57573411     0.09100
C2011       C  0.49748093  0.30880330  0.56396862    -0.02500
C2012       C  0.49555418  0.28852782  0.57533953    -0.00700
C2013       C  0.49747930  0.28791400  0.59848013    -0.04400
C2014       C  0.50282105  0.30744110  0.61000541     0.02700
C2015       C  0.50191842  0.35046004  0.56433475     0.09500
C2016       C  0.49502146  0.30949493  0.54024214     0.35400
C2017       C  0.50834743  0.30650985  0.63324757     0.38800
C2018       C  0.52199403  0.36190269  0.56183379    -0.04700
C2019       C  0.52212237  0.38413309  0.55491308     0.02400
C2020       C  0.50210946  0.39494010  0.54950334    -0.04300
C2021       C  0.48215514  0.38277228  0.55055978    -0.00600
C2022       C  0.48205586  0.36088700  0.55839786    -0.03100
C2023       C  0.54252447  0.35084542  0.56701583     0.36100
C2024       C  0.46159493  0.39250960  0.54324398     0.39800
C2025       C  0.54283456  0.39603357  0.55457651     0.38900
C2026       C  0.46134611  0.34926892  0.56106111     0.35800
C2027       C  0.50856683  0.34771292  0.61102039     0.36500
C2028       C  0.49133884  0.26837460  0.56332510     0.39700
N2029       N  0.55939731  0.40546355  0.55444416    -0.38300
N2030       N  0.55884637  0.34193910  0.57115900    -0.39900
N2031       N  0.44520228  0.40024309  0.53736299    -0.37700
N2032       N  0.44484074  0.33999881  0.56323604    -0.40000
N2033       N  0.49296552  0.31004646  0.52129880    -0.39800
N2034       N  0.48816145  0.25222932  0.55374786    -0.37400
N2035       N  0.51348740  0.30576732  0.65159161    -0.38500
N2036       N  0.51192292  0.36376037  0.62070334    -0.40200
C2037       C  0.48445504  0.13854500  0.54143658    -0.05100
C2038       C  0.48642532  0.14334759  0.56413657     0.09100
C2039       C  0.48777859  0.12573151  0.57933482    -0.02500
C2040       C  0.48879150  0.10372251  0.57186517    -0.00700
C2041       C  0.48686949  0.09888122  0.54916345    -0.04400
C2042       C  0.48401378  0.11643070  0.53406143     0.02700
C2043       C  0.48825033  0.16678517  0.57224739     0.09500
C2044       C  0.48796852  0.13031412  0.60278739     0.35400
C2045       C  0.48141156  0.11180251  0.51077398     0.38800
C2046       C  0.46991535  0.18106585  0.57204161    -0.04700
C2047       C  0.47125949  0.20200796  0.58212784     0.02400
C2048       C  0.49050472  0.20845061  0.59375092    -0.04300
C2049       C  0.50939593  0.19489488  0.59227410    -0.00600
C2050       C  0.50831145  0.17438738  0.58128487    -0.03100
C2051       C  0.44937182  0.17394875  0.56216288     0.36100
C2052       C  0.52989725  0.20128988  0.60261399     0.39800
C2053       C  0.45274160  0.21701064  0.58052440     0.38900
C2054       C  0.52781557  0.16070297  0.57969874     0.35800
C2055       C  0.48352469  0.15638299  0.52559149     0.36500
C2056       C  0.49166783  0.08602409  0.58765322     0.39700
N2057       N  0.43806119  0.22907476  0.57925059    -0.38300
N2058       N  0.43296964  0.16836377  0.55421947    -0.39900
N2059       N  0.54672734  0.20576063  0.61034230    -0.37700
N2060       N  0.54331571  0.14972661  0.57838119    -0.40000
N2061       N  0.48798321  0.13405024  0.62147547    -0.39800
N2062       N  0.49414566  0.07192578  0.60023765    -0.37400
N2063       N  0.47919734  0.10810005  0.49220812    -0.38500
N2064       N  0.48276953  0.17064982  0.51297725    -0.40200
C2065       C  0.42535085  0.26849850  0.67656959    -0.05100
C2066       C  0.41442793  0.24864022  0.68114937     0.09100
C2067       C  0.42548247  0.22859038  0.67784549    -0.02500
C2068       C  0.44620917  0.22832535  0.66728622    -0.00700
C2069       C  0.45544506  0.24814594  0.65876821    -0.04400
C2070       C  0.44627904  0.26825881  0.66655520     0.02700
C2071       C  0.39135784  0.24902770  0.68967480     0.09500
C2072       C  0.41539666  0.20825365  0.68525822     0.35400
C2073       C  0.45879309  0.28853675  0.66647170     0.38800
C2074       C  0.37357877  0.24674265  0.67488336    -0.04700
C2075       C  0.35174580  0.24811123  0.68261041     0.02400
C2076       C  0.34758883  0.25221250  0.70514739    -0.04300
C2077       C  0.36542791  0.25464303  0.71991574    -0.00600
C2078       C  0.38724842  0.25274743  0.71222548    -0.03100
C2079       C  0.37782505  0.24320139  0.65164067     0.36100
C2080       C  0.36134432  0.25842995  0.74314738     0.39800
C2081       C  0.33356036  0.24584141  0.66724437     0.38900
C2082       C  0.40553818  0.25433462  0.72750659     0.35800
C2083       C  0.41488448  0.28925285  0.68206485     0.36500
C2084       C  0.45817972  0.20773036  0.66619941     0.39700
N2085       N  0.31904612  0.24401453  0.65501478    -0.38300
N2086       N  0.38125937  0.24040171  0.63310758    -0.39900
N2087       N  0.35804840  0.26149045  0.76166481    -0.37700
N2088       N  0.42016915  0.25548043  0.73967178    -0.40000
N2089       N  0.40734095  0.19206641  0.69126037    -0.39800
N2090       N  0.46742216  0.19111267  0.66537815    -0.37400
N2091       N  0.46808361  0.30514260  0.66700419    -0.38500
N2092       N  0.40646670  0.30574141  0.68647913    -0.40200
C2093       C  0.24435705  0.83118956  0.87254522    -0.05100
C2094       C  0.25000406  0.81557928  0.88883388     0.09100
C2095       C  0.25618050  0.79414461  0.88241883    -0.02500
C2096       C  0.25682090  0.78836045  0.85989519    -0.00700
C2097       C  0.25112733  0.80396016  0.84349300    -0.04400
C2098       C  0.24486854  0.82543377  0.85000060     0.02700
C2099       C  0.24972362  0.82192331  0.91274393     0.09500
C2100       C  0.26143225  0.77787529  0.89910774     0.35400
C2101       C  0.23925752  0.84180581  0.83352336     0.38800
C2102       C  0.22964901  0.82371436  0.92428390    -0.04700
C2103       C  0.22936586  0.83199486  0.94605286     0.02400
C2104       C  0.24909026  0.83976449  0.95596541    -0.04300
C2105       C  0.26924211  0.83301012  0.94614984    -0.00600
C2106       C  0.26960578  0.82556746  0.92415159    -0.03100
C2107       C  0.20931122  0.81703135  0.91370077     0.36100
C2108       C  0.28932578  0.83181882  0.95905286     0.39800
C2109       C  0.20916296  0.83076246  0.95870293     0.38900
C2110       C  0.29048394  0.82207330  0.91311251     0.35800
C2111       C  0.23798672  0.85324447  0.87906226     0.36500
C2112       C  0.26230963  0.76595850  0.85375545     0.39700
N2113       N  0.19308291  0.82961335  0.96885849    -0.38300
N2114       N  0.19310159  0.81167210  0.90522718    -0.39900
N2115       N  0.30535354  0.83076327  0.96932381    -0.37700
N2116       N  0.30711414  0.81931458  0.90425067    -0.40000
N2117       N  0.26565071  0.76493210  0.91244635    -0.39800
N2118       N  0.26664847  0.74807850  0.84887983    -0.37400
N2119       N  0.23473056  0.85491869  0.82045192    -0.38500
N2120       N  0.23282811  0.87079028  0.88433325    -0.40200
C2121       C  0.31998146  0.91179150  0.02131237    -0.05100
C2122       C  0.33052365  0.91985144  0.00228499     0.09100
C2123       C  0.31898179  0.92030270  0.98218390    -0.02500
C2124       C  0.29757124  0.91139688  0.98081838    -0.00700
C2125       C  0.28808561  0.90032953  0.99915900    -0.04400
C2126       C  0.29882753  0.90214977  0.01988109     0.02700
C2127       C  0.35387334  0.92779774  0.00348384     0.09500
C2128       C  0.32949841  0.92921937  0.96266951     0.35400
C2129       C  0.28854459  0.89452964  0.03998099     0.38800
C2130       C  0.37139964  0.91258823  0.00288889    -0.04700
C2131       C  0.39344045  0.91989447  0.00468292     0.02400
C2132       C  0.39817566  0.94263379  0.00692316    -0.04300
C2133       C  0.38039627  0.95785854  0.00703568    -0.00600
C2134       C  0.35843329  0.95041398  0.00548885    -0.03100
C2135       C  0.36661119  0.88932571  0.00045510     0.36100
C2136       C  0.38451664  0.98136847  0.00805894     0.39800
C2137       C  0.41107267  0.90381991  0.00487432     0.38900
C2138       C  0.34040138  0.96605853  0.00598628     0.35800
C2139       C  0.33125863  0.91305121  0.04236079     0.36500
C2140       C  0.28520636  0.91407813  0.96052353     0.39700
N2141       N  0.42506635  0.89090638  0.00501052    -0.38300
N2142       N  0.36262272  0.87080969  0.99850025    -0.39900
N2143       N  0.38777536  0.00011251  0.00891118    -0.37700
N2144       N  0.32602097  0.97853083  0.00635482    -0.40000
N2145       N  0.33793188  0.93619532  0.94706641    -0.39800
N2146       N  0.27548228  0.91621834  0.94426456    -0.37400
N2147       N  0.28072738  0.88924038  0.05654178    -0.38500
N2148       N  0.34031653  0.91410772  0.05910249    -0.40200
C2149       C  0.18230622  0.92528097  0.98072900    -0.05100
C2150       C  0.17095210  0.92688001  0.00086398     0.09100
C2151       C  0.18091129  0.91863975  0.02015022    -0.02500
C2152       C  0.20088296  0.90666700  0.01900207    -0.00700
C2153       C  0.21092622  0.90240519  0.99825970    -0.04400
C2154       C  0.20242238  0.91367789  0.97951630     0.02700
C2155       C  0.14780669  0.93567755  0.00151515     0.09500
C2156       C  0.17021848  0.92219100  0.04122170     0.35400
C2157       C  0.21455319  0.91395678  0.95893483     0.38800
C2158       C  0.12997134  0.92083033  0.00292559    -0.04700
C2159       C  0.10810912  0.92868387  0.00369276     0.02400
C2160       C  0.10374009  0.95147830  0.00213314    -0.04300
C2161       C  0.12160343  0.96634296  0.00027207    -0.00600
C2162       C  0.14355066  0.95849523  0.00043277    -0.03100
C2163       C  0.13418557  0.89732965  0.00311998     0.36100
C2164       C  0.11742206  0.98977802  0.99864298     0.39800
C2165       C  0.09010476  0.91312545  0.00545275     0.38900
C2166       C  0.16179022  0.97387540  0.99976185     0.35800
C2167       C  0.17288117  0.93502321  0.96104157     0.36500
C2168       C  0.21070003  0.89928893  0.03943524     0.39700
N2169       N  0.07591230  0.90051348  0.00693390    -0.38300
N2170       N  0.13767794  0.87861620  0.00316221    -0.39900
N2171       N  0.11404286  0.00846450  0.99725771    -0.37700
N2172       N  0.17636122  0.98614530  0.99930802    -0.40000
N2173       N  0.16166450  0.92507710  0.05799607    -0.39800
N2174       N  0.21822495  0.89424869  0.05622193    -0.37400
N2175       N  0.22405408  0.91416979  0.94242178    -0.38500
N2176       N  0.16535645  0.94284570  0.94536768    -0.40200
C2177       C  0.25420349  0.84085537  0.12338948    -0.05100
C2178       C  0.24961982  0.82525374  0.10680301     0.09100
C2179       C  0.24497096  0.80329675  0.11274544    -0.02500
C2180       C  0.24440436  0.79704725  0.13515725    -0.00700
C2181       C  0.24869101  0.81271212  0.15187182    -0.04400
C2182       C  0.25385908  0.83461883  0.14582249     0.02700
C2183       C  0.24933392  0.83206498  0.08303851     0.09500
C2184       C  0.24117248  0.78705254  0.09567548     0.35400
C2185       C  0.25843574  0.85090463  0.16267417     0.38800
C2186       C  0.26911029  0.83326172  0.07087890    -0.04700
C2187       C  0.26882602  0.84060301  0.04879333     0.02400
C2188       C  0.24882495  0.84721198  0.03892703    -0.04300
C2189       C  0.22888244  0.84394539  0.05036845    -0.00600
C2190       C  0.22916500  0.83699418  0.07255918    -0.03100
C2191       C  0.28970241  0.82685071  0.08111599     0.36100
C2192       C  0.20806669  0.84687786  0.03901746     0.39800
C2193       C  0.28904692  0.84108821  0.03609401     0.38900
C2194       C  0.20872038  0.83500427  0.08470869     0.35800
C2195       C  0.25924485  0.86337949  0.11728616     0.36500
C2196       C  0.24036128  0.77422767  0.14091908     0.39700
N2197       N  0.30513485  0.84146590  0.02589818    -0.38300
N2198       N  0.30611739  0.82167964  0.08930152    -0.39900
N2199       N  0.19147462  0.84910226  0.02989904    -0.37700
N2200       N  0.19244906  0.83341302  0.09448486    -0.40000
N2201       N  0.23823811  0.77412731  0.08200071    -0.39800
N2202       N  0.23720976  0.75600955  0.14549980    -0.37400
N2203       N  0.26214899  0.86388712  0.17610967    -0.38500
N2204       N  0.26330622  0.88132091  0.11234424    -0.40200
C2205       C  0.33528886  0.93654943  0.26875329    -0.05100
C2206       C  0.32427126  0.92806531  0.25014290     0.09100
C2207       C  0.31811644  0.94254223  0.23308425    -0.02500
C2208       C  0.32549003  0.96456102  0.23336342    -0.00700
C2209       C  0.33995966  0.97196444  0.25004796    -0.04400
C2210       C  0.34205318  0.95881034  0.26919280     0.02700
C2211       C  0.31811169  0.90419390  0.24905046     0.09500
C2212       C  0.30447318  0.93468101  0.21513115     0.35400
C2213       C  0.34913048  0.96826693  0.28987282     0.38800
C2214       C  0.29782993  0.89696314  0.25773904    -0.04700
C2215       C  0.29199663  0.87450722  0.25669493     0.02400
C2216       C  0.30663258  0.85902426  0.24740580    -0.04300
C2217       C  0.32685082  0.86625644  0.23854255    -0.00600
C2218       C  0.33251354  0.88881949  0.23923024    -0.03100
C2219       C  0.28304575  0.91269475  0.26787953     0.36100
C2220       C  0.34177712  0.85046624  0.22872947     0.39800
C2221       C  0.27080367  0.86734967  0.26505687     0.38900
C2222       C  0.35315891  0.89629481  0.22986398     0.35800
C2223       C  0.34011119  0.92221361  0.28723472     0.36500
C2224       C  0.31644396  0.98021438  0.21784518     0.39700
N2225       N  0.25381786  0.86175577  0.27162855    -0.38300
N2226       N  0.27134182  0.92530103  0.27602284    -0.39900
N2227       N  0.35366664  0.83783675  0.22089290    -0.37700
N2228       N  0.36959330  0.90234654  0.22235734    -0.40000
N2229       N  0.29357162  0.92836279  0.20082943    -0.39800
N2230       N  0.30819832  0.99265247  0.20600688    -0.37400
N2231       N  0.35402811  0.97554203  0.30679961    -0.38500
N2232       N  0.34410148  0.91072357  0.30190983    -0.40200
C2233       C  0.19053574  0.62507032  0.24405652    -0.05100
C2234       C  0.17988221  0.61756333  0.26324644     0.09100
C2235       C  0.17745795  0.63176998  0.28144044    -0.02500
C2236       C  0.18542717  0.65355994  0.28033595    -0.00700
C2237       C  0.19567627  0.66131977  0.26087366    -0.04400
C2238       C  0.19834757  0.64686440  0.24279980     0.02700
C2239       C  0.16939099  0.59531590  0.26335349     0.09500
C2240       C  0.16620190  0.62408788  0.30106102     0.35400
C2241       C  0.20947627  0.65421545  0.22296751     0.38800
C2242       C  0.18085398  0.57676398  0.27110744    -0.04700
C2243       C  0.17106677  0.55563143  0.27014421     0.02400
C2244       C  0.15011897  0.55267712  0.25987165    -0.04300
C2245       C  0.13774492  0.57212106  0.25497573    -0.00600
C2246       C  0.14764896  0.59303724  0.25588299    -0.03100
C2247       C  0.20266917  0.57960147  0.28046493     0.36100
C2248       C  0.11435131  0.57108347  0.25000791     0.39800
C2249       C  0.18154996  0.53809017  0.28240667     0.38900
C2250       C  0.13544426  0.61242517  0.24902104     0.35800
C2251       C  0.19311605  0.61033814  0.22544970     0.36500
C2252       C  0.18218531  0.66821483  0.29890973     0.39700
N2253       N  0.19014777  0.52444808  0.29257557    -0.38300
N2254       N  0.22004658  0.58193461  0.28794138    -0.39900
N2255       N  0.09571017  0.57038563  0.24609285    -0.37700
N2256       N  0.12583553  0.62791641  0.24350721    -0.40000
N2257       N  0.15716731  0.61798121  0.31669181    -0.39800
N2258       N  0.17959417  0.67990943  0.31371533    -0.37400
N2259       N  0.21829895  0.66008507  0.20712533    -0.38500
N2260       N  0.19511912  0.59850732  0.21066710    -0.40200
C2261       C  0.12090315  0.73403475  0.18220329    -0.05100
C2262       C  0.10837391  0.75353573  0.18110184     0.09100
C2263       C  0.11752975  0.77339058  0.18882741    -0.02500
C2264       C  0.13925191  0.77390904  0.19719866    -0.00700
C2265       C  0.15224025  0.75449642  0.19774378    -0.04400
C2266       C  0.14269155  0.73444355  0.19046398     0.02700
C2267       C  0.08627285  0.75355227  0.16996927     0.09500
C2268       C  0.10460594  0.79342509  0.18774181     0.35400
C2269       C  0.15546137  0.71427616  0.19053890     0.38800
C2270       C  0.06668921  0.75017874  0.18207739    -0.04700
C2271       C  0.04603341  0.75004767  0.17122960     0.02400
C2272       C  0.04492188  0.75281951  0.14818592    -0.04300
C2273       C  0.06457253  0.75636234  0.13614795    -0.00600
C2274       C  0.08506659  0.75699563  0.14703174    -0.03100
C2275       C  0.06790089  0.74630934  0.20559703     0.36100
C2276       C  0.06366771  0.76000006  0.11252622     0.39800
C2277       C  0.02599443  0.74650938  0.18366375     0.38900
C2278       C  0.10505848  0.76104222  0.13459955     0.35800
C2279       C  0.11146181  0.71359602  0.17425454     0.36500
C2280       C  0.14794877  0.79447302  0.20565226     0.39700
N2281       N  0.01001877  0.74378165  0.19367051    -0.38300
N2282       N  0.06888921  0.74309833  0.22436234    -0.39900
N2283       N  0.06295590  0.76325296  0.09375322    -0.37700
N2284       N  0.12104271  0.76430174  0.12476014    -0.40000
N2285       N  0.09423244  0.80935951  0.18679823    -0.39800
N2286       N  0.15484341  0.81090341  0.21237929    -0.37400
N2287       N  0.16559367  0.69815528  0.19060322    -0.38500
N2288       N  0.10388877  0.69732787  0.16787328    -0.40200
C2289       C  0.01459053  0.67527151  0.07977907    -0.05100
C2290       C  0.99333211  0.66769807  0.07461436     0.09100
C2291       C  0.97545443  0.68234420  0.07569931    -0.02500
C2292       C  0.97840146  0.70370564  0.08437224    -0.00700
C2293       C  0.99930732  0.71035081  0.09279423    -0.04400
C2294       C  0.01772814  0.69698368  0.08727658     0.02700
C2295       C  0.99016155  0.64484002  0.06613240     0.09500
C2296       C  0.95401025  0.67535299  0.06778014     0.35400
C2297       C  0.03981988  0.70600261  0.08671292     0.38800
C2298       C  0.98487146  0.62754306  0.08070630    -0.04700
C2299       C  0.98283154  0.60581739  0.07275761     0.02400
C2300       C  0.98579657  0.60134914  0.05009092    -0.04300
C2301       C  0.99075054  0.61885387  0.03548343    -0.00600
C2302       C  0.99300724  0.64047186  0.04352873    -0.03100
C2303       C  0.98153109  0.63217391  0.10389146     0.36100
C2304       C  0.99434061  0.61460683  0.01223953     0.39800
C2305       C  0.97716247  0.58817974  0.08784124     0.38900
C2306       C  0.99854532  0.65830448  0.02861406     0.35800
C2307       C  0.03329657  0.66063538  0.07733729     0.36500
C2308       C  0.95997000  0.71882559  0.08354589     0.39700
N2309       N  0.97265158  0.57408495  0.09985152    -0.38300
N2310       N  0.97880019  0.63589559  0.12237812    -0.39900
N2311       N  0.99718319  0.61126530  0.99369488    -0.37700
N2312       N  0.00301508  0.67259030  0.01682076    -0.40000
N2313       N  0.93695686  0.66976874  0.06135778    -0.39800
N2314       N  0.94488048  0.73041748  0.08291827    -0.37400
N2315       N  0.05757167  0.71288144  0.08594846    -0.38500
N2316       N  0.04814782  0.64886151  0.07553554    -0.40200
C2317       C  0.99187847  0.82180152  0.07219012    -0.05100
C2318       C  0.00786202  0.83706097  0.07915537     0.09100
C2319       C  0.02344196  0.83084866  0.09515594    -0.02500
C2320       C  0.02262951  0.80974250  0.10482812    -0.00700
C2321       C  0.00705156  0.79391862  0.09744895    -0.04400
C2322       C  0.99147571  0.80035721  0.08116277     0.02700
C2323       C  0.00714781  0.86038471  0.07121618     0.09500
C2324       C  0.04014984  0.84654412  0.10198937     0.35400
C2325       C  0.97350616  0.78587884  0.07509608     0.38800
C2326       C  0.99896002  0.87699191  0.08522226    -0.04700
C2327       C  0.99921871  0.89916184  0.07843284     0.02400
C2328       C  0.00694819  0.90486298  0.05720265    -0.04300
C2329       C  0.01456919  0.88809351  0.04294012    -0.00600
C2330       C  0.01498330  0.86598420  0.05007578    -0.03100
C2331       C  0.99018195  0.87119376  0.10668764     0.36100
C2332       C  0.02093720  0.89337430  0.02052149     0.39800
C2333       C  0.99217023  0.91613022  0.09366947     0.38900
C2334       C  0.02339750  0.84894033  0.03566032     0.35800
C2335       C  0.97526328  0.82851974  0.05635546     0.36500
C2336       C  0.03717410  0.80539453  0.12320671     0.39700
N2337       N  0.98666536  0.92961127  0.10592889    -0.38300
N2338       N  0.98318137  0.86655337  0.12379505    -0.39900
N2339       N  0.02577031  0.89759685  0.00257273    -0.37700
N2340       N  0.03006908  0.83532262  0.02415643    -0.40000
N2341       N  0.05342348  0.85910456  0.10737970    -0.39800
N2342       N  0.04869808  0.80336971  0.13825482    -0.37400
N2343       N  0.95886772  0.77477663  0.07009522    -0.38500
N2344       N  0.96201717  0.83390513  0.04374708    -0.40200
C2345       C  0.21403490  0.66136981  0.56793939    -0.05100
C2346       C  0.23149062  0.67022034  0.58040423     0.09100
C2347       C  0.25221241  0.67323112  0.57045961    -0.02500
C2348       C  0.25611985  0.66517398  0.54905125    -0.00700
C2349       C  0.23953727  0.65327283  0.53767015    -0.04400
C2350       C  0.21787200  0.65343176  0.54638551     0.02700
C2351       C  0.22840821  0.67593455  0.60419842     0.09500
C2352       C  0.26973175  0.68400386  0.58262762     0.35400
C2353       C  0.19931123  0.64599382  0.53342805     0.38800
C2354       C  0.23506294  0.66093358  0.62065785    -0.04700
C2355       C  0.23426652  0.66697898  0.64308404     0.02400
C2356       C  0.22704155  0.68824388  0.64923055    -0.04300
C2357       C  0.21923457  0.70280506  0.63270248    -0.00600
C2358       C  0.21999019  0.69664169  0.61029567    -0.03100
C2359       C  0.24311997  0.63936077  0.61439544     0.36100
C2360       C  0.21134836  0.72457452  0.63850514     0.39800
C2361       C  0.24045098  0.65108375  0.65982581     0.38900
C2362       C  0.21277161  0.71187361  0.59337202     0.35800
C2363       C  0.19227260  0.65981081  0.57763872     0.36500
C2364       C  0.27725030  0.66927581  0.53869486     0.39700
N2365       N  0.24524009  0.63831869  0.67314800    -0.38300
N2366       N  0.24957555  0.62218955  0.60932519    -0.39900
N2367       N  0.20498257  0.74190556  0.64313805    -0.37700
N2368       N  0.20701068  0.72399523  0.57983988    -0.40000
N2369       N  0.28365724  0.69256686  0.59242448    -0.39800
N2370       N  0.29414008  0.67259669  0.53053451    -0.37400
N2371       N  0.18399735  0.64085292  0.52330404    -0.38500
N2372       N  0.17492850  0.65858984  0.58542158    -0.40200
C2373       C  0.31921315  0.57403890  0.48734396    -0.05100
C2374       C  0.33037449  0.57328089  0.50766403     0.09100
C2375       C  0.31895661  0.57859391  0.52709463    -0.02500
C2376       C  0.29737022  0.58709061  0.52592801    -0.00700
C2377       C  0.28791708  0.59242166  0.50512949    -0.04400
C2378       C  0.29772749  0.58278527  0.48618701     0.02700
C2379       C  0.35398054  0.56637427  0.50869090     0.09500
C2380       C  0.32947501  0.57521155  0.54829328     0.35400
C2381       C  0.28552031  0.58103355  0.46570441     0.38800
C2382       C  0.37077662  0.58234736  0.50719162    -0.04700
C2383       C  0.39308761  0.57597550  0.50807253     0.02400
C2384       C  0.39875154  0.55352121  0.51016198    -0.04300
C2385       C  0.38186297  0.53754514  0.51177820    -0.00600
C2386       C  0.35955373  0.54399801  0.51116356    -0.03100
C2387       C  0.36502562  0.60535114  0.50446906     0.36100
C2388       C  0.38736313  0.51435262  0.51297872     0.39800
C2389       C  0.41021090  0.59259997  0.50724396     0.38900
C2390       C  0.34224387  0.52762149  0.51269148     0.35800
C2391       C  0.32998013  0.56603858  0.46760765     0.36500
C2392       C  0.28431850  0.58763825  0.54590621     0.39700
N2393       N  0.42383512  0.60590416  0.50667685    -0.38300
N2394       N  0.36039204  0.62367947  0.50221216    -0.39900
N2395       N  0.39167850  0.49583005  0.51382646    -0.37700
N2396       N  0.32836734  0.51462112  0.51389026    -0.40000
N2397       N  0.33793707  0.57246864  0.56515774    -0.39800
N2398       N  0.27398763  0.58793408  0.56191832    -0.37400
N2399       N  0.27571853  0.57957160  0.44941450    -0.38500
N2400       N  0.33857761  0.55961635  0.45187673    -0.40200
C2401       C  0.17673874  0.58742688  0.46868008    -0.05100
C2402       C  0.16394894  0.58094605  0.48697812     0.09100
C2403       C  0.17282108  0.58285012  0.50840293    -0.02500
C2404       C  0.19394298  0.59203700  0.51155895    -0.00700
C2405       C  0.20615887  0.59978750  0.49333720    -0.04400
C2406       C  0.19800462  0.59630347  0.47183618     0.02700
C2407       C  0.14142023  0.57131214  0.48373052     0.09500
C2408       C  0.16028333  0.57503067  0.52716400     0.35400
C2409       C  0.21205922  0.60046238  0.45298115     0.38800
C2410       C  0.13850465  0.54829833  0.48354928    -0.04700
C2411       C  0.11717147  0.53915800  0.48194606     0.02400
C2412       C  0.09845221  0.55302218  0.48030951    -0.04300
C2413       C  0.10158544  0.57611733  0.47953602    -0.00600
C2414       C  0.12295499  0.58517909  0.48138437    -0.03100
C2415       C  0.15757060  0.53402400  0.48522144     0.36100
C2416       C  0.08292872  0.59061635  0.47613517     0.39800
C2417       C  0.11458870  0.51543744  0.48279415     0.38900
C2418       C  0.12602420  0.60884178  0.48100522     0.35800
C2419       C  0.16815370  0.58450400  0.44659171     0.36500
C2420       C  0.20337796  0.59297740  0.53350998     0.39700
N2421       N  0.11257625  0.49651138  0.48343127    -0.38300
N2422       N  0.17281709  0.52269087  0.48653397    -0.39900
N2423       N  0.06806584  0.60218747  0.47330990    -0.37700
N2424       N  0.12857534  0.62770818  0.48067943    -0.40000
N2425       N  0.15028646  0.56864675  0.54207995    -0.39800
N2426       N  0.21095628  0.59373671  0.55099081    -0.37400
N2427       N  0.22334807  0.60358241  0.43794766    -0.38500
N2428       N  0.16127936  0.58217387  0.42896538    -0.40200
C2429       C  0.25452271  0.67003503  0.37709746    -0.05100
C2430       C  0.25727807  0.68403201  0.39547898     0.09100
C2431       C  0.26189614  0.70656840  0.39196937    -0.02500
C2432       C  0.26349736  0.71506188  0.37032654    -0.00700
C2433       C  0.25973033  0.70125640  0.35197343    -0.04400
C2434       C  0.25555190  0.67862652  0.35548018     0.02700
C2435       C  0.25523643  0.67495738  0.41850010     0.09500
C2436       C  0.26440344  0.72114685  0.41069959     0.35400
C2437       C  0.25279900  0.66403920  0.33676807     0.38800
C2438       C  0.27397256  0.67270147  0.43199030    -0.04700
C2439       C  0.27210526  0.66346531  0.45325010     0.02400
C2440       C  0.25193826  0.65388805  0.46045025    -0.04300
C2441       C  0.23273927  0.65826161  0.44772755    -0.00600
C2442       C  0.23448574  0.66878339  0.42694478    -0.03100
C2443       C  0.29540563  0.67927119  0.42371949     0.36100
C2444       C  0.21098725  0.65256322  0.45560941     0.39800
C2445       C  0.29088718  0.66480140  0.46800013     0.38900
C2446       C  0.21486186  0.67311474  0.41399077     0.35800
C2447       C  0.25059254  0.64672619  0.38046298     0.36500
C2448       C  0.26830999  0.73819982  0.36699731     0.39700
N2449       N  0.30592625  0.66592140  0.47966380    -0.38300
N2450       N  0.31250157  0.68443718  0.41707954    -0.39900
N2451       N  0.19327357  0.64865155  0.46146742    -0.37700
N2452       N  0.19924701  0.67660045  0.40362972    -0.40000
N2453       N  0.26641469  0.73270249  0.42570486    -0.39800
N2454       N  0.27225651  0.75664223  0.36434530    -0.37400
N2455       N  0.25067614  0.65242663  0.32181818    -0.38500
N2456       N  0.24740362  0.62814712  0.38317811    -0.40200
C2457       C  0.60405556  0.51164077  0.16835884    -0.05100
C2458       C  0.58626732  0.49730085  0.16461740     0.09100
C2459       C  0.57689023  0.48567564  0.18226765    -0.02500
C2460       C  0.58521522  0.48833476  0.20375720    -0.00700
C2461       C  0.60303930  0.50298089  0.20791263    -0.04400
C2462       C  0.61244039  0.51455779  0.18985282     0.02700
C2463       C  0.57676796  0.49496810  0.14209330     0.09500
C2464       C  0.55869024  0.47072215  0.17814366     0.35400
C2465       C  0.63061257  0.52970716  0.19280082     0.38800
C2466       C  0.58297762  0.47721375  0.12849240    -0.04700
C2467       C  0.57354799  0.47489203  0.10738459     0.02400
C2468       C  0.55850818  0.49079193  0.09958681    -0.04300
C2469       C  0.55196435  0.50826984  0.11345532    -0.00600
C2470       C  0.56093778  0.51021994  0.13472404    -0.03100
C2471       C  0.59925450  0.46154080  0.13618666     0.36100
C2472       C  0.53547787  0.52391204  0.10607272     0.39800
C2473       C  0.57958352  0.45639464  0.09359250     0.38900
C2474       C  0.55376355  0.52779355  0.14919565     0.35800
C2475       C  0.61373977  0.52340060  0.14991121     0.36500
C2476       C  0.57608786  0.47470884  0.22109057     0.39700
N2477       N  0.58424411  0.44153468  0.08264865    -0.38300
N2478       N  0.61229563  0.44909787  0.14234694    -0.39900
N2479       N  0.52227803  0.53633207  0.10020985    -0.37700
N2480       N  0.54803312  0.54171696  0.16083927    -0.40000
N2481       N  0.54423365  0.45878854  0.17473603    -0.39800
N2482       N  0.56835009  0.46362963  0.23450822    -0.37400
N2483       N  0.64531075  0.54177437  0.19390565    -0.38500
N2484       N  0.62145368  0.53275523  0.13520328    -0.40200
C2485       C  0.57937946  0.52978245  0.32190258    -0.05100
C2486       C  0.57272108  0.51002294  0.33187894     0.09100
C2487       C  0.57433517  0.49021366  0.32009850    -0.02500
C2488       C  0.58514515  0.48971885  0.29955267    -0.00700
C2489       C  0.59543270  0.50907079  0.29101501    -0.04400
C2490       C  0.58962780  0.52946672  0.30105398     0.02700
C2491       C  0.56474110  0.50983490  0.35512660     0.09500
C2492       C  0.56508080  0.47023344  0.32940766     0.35400
C2493       C  0.59201702  0.55021658  0.28957092     0.38800
C2494       C  0.54257232  0.51456234  0.36010039    -0.04700
C2495       C  0.53508605  0.51331249  0.38206470     0.02400
C2496       C  0.54987263  0.50764858  0.39917220    -0.04300
C2497       C  0.57213085  0.50316086  0.39411224    -0.00600
C2498       C  0.57950344  0.50423321  0.37216044    -0.03100
C2499       C  0.52747369  0.52044725  0.34254597     0.36100
C2500       C  0.58761612  0.49776947  0.41150214     0.39800
C2501       C  0.51194611  0.51673756  0.38687464     0.38900
C2502       C  0.60235292  0.49955170  0.36699520     0.35800
C2503       C  0.57578758  0.55047727  0.33325511     0.36500
C2504       C  0.58510893  0.46917736  0.28740969     0.39700
N2505       N  0.49346285  0.51931716  0.39069768    -0.38300
N2506       N  0.51547916  0.52523500  0.32852137    -0.39900
N2507       N  0.60005675  0.49343782  0.42527929    -0.37700
N2508       N  0.62054407  0.49581122  0.36277333    -0.40000
N2509       N  0.55764229  0.45435362  0.33685664    -0.39800
N2510       N  0.58518586  0.45247131  0.27828456    -0.37400
N2511       N  0.59348391  0.56717855  0.28103739    -0.38500
N2512       N  0.57290185  0.56696137  0.34232170    -0.40200
C2513       C  0.65849676  0.42853795  0.23337219    -0.05100
C2514       C  0.67258820  0.42227428  0.25077338     0.09100
C2515       C  0.67809455  0.43779357  0.26714695    -0.02500
C2516       C  0.66833399  0.45887960  0.26696516    -0.00700
C2517       C  0.65331037  0.46482879  0.25011633    -0.04400
C2518       C  0.64946702  0.44991505  0.23265986     0.02700
C2519       C  0.68145380  0.39923708  0.25169802     0.09500
C2520       C  0.69352437  0.43188763  0.28439941     0.35400
C2521       C  0.63608015  0.45602186  0.21391544     0.38800
C2522       C  0.69705708  0.39219877  0.23600355    -0.04700
C2523       C  0.70322921  0.36986901  0.23491244     0.02400
C2524       C  0.69520639  0.35468717  0.25063072    -0.04300
C2525       C  0.68087895  0.36206604  0.26739172    -0.00600
C2526       C  0.67336574  0.38407016  0.26740993    -0.03100
C2527       C  0.70688019  0.40805458  0.22107854     0.36100
C2528       C  0.67347734  0.34693814  0.28432596     0.39800
C2529       C  0.71806478  0.36256336  0.21769270     0.38900
C2530       C  0.65680087  0.39096289  0.28315224     0.35800
C2531       C  0.65254790  0.41258915  0.21658549     0.36500
C2532       C  0.67377319  0.47452831  0.28416711     0.39700
N2533       N  0.72975039  0.35666771  0.20386208    -0.38300
N2534       N  0.71480769  0.42078345  0.20931928    -0.39900
N2535       N  0.66772834  0.33495796  0.29799155    -0.37700
N2536       N  0.64351123  0.39650586  0.29561463    -0.40000
N2537       N  0.70579576  0.42712039  0.29818823    -0.39800
N2538       N  0.67805854  0.48707416  0.29784340    -0.37400
N2539       N  0.62606592  0.45990859  0.19818290    -0.38500
N2540       N  0.64777634  0.39983904  0.20326318    -0.40200
C2541       C  0.74271879  0.32547007  0.42265488    -0.05100
C2542       C  0.76172799  0.32987469  0.41012122     0.09100
C2543       C  0.77896337  0.34231715  0.41949212    -0.02500
C2544       C  0.77622240  0.35227222  0.44039066    -0.00700
C2545       C  0.75615854  0.34975803  0.45198334    -0.04400
C2546       C  0.74001729  0.33516651  0.44355428     0.02700
C2547       C  0.76248365  0.32298013  0.38641153     0.09500
C2548       C  0.79921726  0.34540100  0.40724211     0.35400
C2549       C  0.72021577  0.33061803  0.45612744     0.38800
C2550       C  0.75414277  0.33721697  0.37002915    -0.04700
C2551       C  0.75256022  0.33014423  0.34793103     0.02400
C2552       C  0.75911293  0.30859292  0.34200919    -0.04300
C2553       C  0.76806967  0.29456633  0.35842846    -0.00600
C2554       C  0.76981329  0.30181046  0.38048611    -0.03100
C2555       C  0.74685957  0.35912521  0.37607499     0.36100
C2556       C  0.77465120  0.27229510  0.35292671     0.39800
C2557       C  0.74464635  0.34531618  0.33124182     0.38900
C2558       C  0.77880158  0.28736910  0.39725019     0.35800
C2559       C  0.72547699  0.31167465  0.41354807     0.36500
C2560       C  0.79372039  0.36583767  0.44924134     0.39700
N2561       N  0.73838485  0.35744291  0.31793133    -0.38300
N2562       N  0.74106196  0.37657270  0.38099400    -0.39900
N2563       N  0.77989092  0.25453119  0.34852806    -0.37700
N2564       N  0.78601370  0.27588797  0.41064641    -0.40000
N2565       N  0.81540964  0.34774467  0.39748079    -0.39800
N2566       N  0.80813318  0.37635190  0.45592546    -0.37400
N2567       N  0.70441248  0.32707059  0.46616076    -0.38500
N2568       N  0.71176318  0.30066986  0.40620892    -0.40200
C2569       C  0.67592015  0.42175488  0.46616593    -0.05100
C2570       C  0.66345140  0.42446772  0.48548683     0.09100
C2571       C  0.67364968  0.42191222  0.50611130    -0.02500
C2572       C  0.69535011  0.41390396  0.50745012    -0.00700
C2573       C  0.70665471  0.40712281  0.48805726    -0.04400
C2574       C  0.69787279  0.41428637  0.46751685     0.02700
C2575       C  0.63972479  0.43070520  0.48447444     0.09500
C2576       C  0.66161182  0.42739749  0.52603752     0.35400
C2577       C  0.71174754  0.41613064  0.44817552     0.38800
C2578       C  0.62344439  0.41476705  0.48904201    -0.04700
C2579       C  0.60116326  0.42098424  0.49066665     0.02400
C2580       C  0.59501525  0.44315686  0.48730326    -0.04300
C2581       C  0.61136033  0.45903429  0.48235469    -0.00600
C2582       C  0.63364462  0.45279889  0.48098381    -0.03100
C2583       C  0.62975596  0.39197634  0.49233006     0.36100
C2584       C  0.60549651  0.48206391  0.47999975     0.39800
C2585       C  0.58461370  0.40451663  0.49574863     0.38900
C2586       C  0.65045736  0.46922094  0.47668810     0.35800
C2587       C  0.66606280  0.42646163  0.44491214     0.36500
C2588       C  0.70584494  0.41370158  0.52887861     0.39700
N2589       N  0.57144799  0.39138451  0.49991434    -0.38300
N2590       N  0.63486652  0.37382259  0.49494358    -0.39900
N2591       N  0.60088066  0.50044902  0.47821441    -0.37700
N2592       N  0.66390086  0.48227089  0.47322284    -0.40000
N2593       N  0.65198988  0.43176515  0.54188361    -0.39800
N2594       N  0.71320710  0.41389806  0.54644777    -0.37400
N2595       N  0.72272490  0.41775707  0.43268299    -0.38500
N2596       N  0.65814401  0.43023833  0.42798392    -0.40200
C2597       C  0.82428631  0.40656692  0.51792138    -0.05100
C2598       C  0.83100797  0.42367255  0.50375520     0.09100
C2599       C  0.81729225  0.42994438  0.48609064    -0.02500
C2600       C  0.79658295  0.41979515  0.48317093    -0.00700
C2601       C  0.78981315  0.40238530  0.49724679    -0.04400
C2602       C  0.80453849  0.39506466  0.51387278     0.02700
C2603       C  0.85335726  0.43378424  0.50653915     0.09500
C2604       C  0.82479515  0.44645152  0.47052687     0.35400
C2605       C  0.80058662  0.37512031  0.52629025     0.38800
C2606       C  0.87232182  0.42095174  0.50278285    -0.04700
C2607       C  0.89339617  0.42969995  0.50685178     0.02400
C2608       C  0.89597404  0.45220166  0.51255449    -0.04300
C2609       C  0.87680447  0.46521910  0.51582232    -0.00600
C2610       C  0.85565753  0.45580336  0.51348692    -0.03100
C2611       C  0.87013203  0.39863555  0.49453294     0.36100
C2612       C  0.87851912  0.48845963  0.52102160     0.39800
C2613       C  0.91223219  0.41502346  0.50615700     0.38900
C2614       C  0.83618729  0.46878731  0.51824531     0.35800
C2615       C  0.83793752  0.40064647  0.53668568     0.36500
C2616       C  0.78300092  0.42628872  0.46459260     0.39700
N2617       N  0.92718950  0.40324223  0.50581477    -0.38300
N2618       N  0.86832793  0.38086959  0.48793679    -0.39900
N2619       N  0.87975942  0.50701114  0.52513312    -0.37700
N2620       N  0.82065859  0.47913833  0.52201723    -0.40000
N2621       N  0.83082445  0.45958987  0.45810786    -0.39800
N2622       N  0.77221113  0.43147385  0.44975511    -0.37400
N2623       N  0.79890852  0.35896920  0.53625711    -0.38500
N2624       N  0.84884356  0.39596355  0.55160821    -0.40200
C2625       C  0.31738701  0.56359572  0.75190753    -0.05100
C2626       C  0.32749927  0.58237556  0.74280830     0.09100
C2627       C  0.34976129  0.58124957  0.73660062    -0.02500
C2628       C  0.36157502  0.56129336  0.73845892    -0.00700
C2629       C  0.35112868  0.54160365  0.74605550    -0.04400
C2630       C  0.32951153  0.54395156  0.75501646     0.02700
C2631       C  0.31572294  0.60417003  0.74233792     0.09500
C2632       C  0.36082236  0.60106510  0.72897791     0.35400
C2633       C  0.32059763  0.52779643  0.77016976     0.38800
C2634       C  0.31202649  0.61569695  0.76214068    -0.04700
C2635       C  0.30182108  0.63655153  0.76186412     0.02400
C2636       C  0.29674145  0.64710624  0.74156175    -0.04300
C2637       C  0.30080465  0.63552103  0.72165872    -0.00600
C2638       C  0.30958264  0.61395465  0.72215525    -0.03100
C2639       C  0.31930349  0.60628074  0.78289940     0.36100
C2640       C  0.29708293  0.64600025  0.70050791     0.39800
C2641       C  0.29598580  0.64661907  0.78272279     0.38900
C2642       C  0.31262252  0.60184584  0.70180883     0.35800
C2643       C  0.29449484  0.56470638  0.75864790     0.36500
C2644       C  0.38497740  0.56218608  0.73414897     0.39700
N2645       N  0.29119665  0.65441137  0.79942839    -0.38300
N2646       N  0.32519899  0.59876029  0.79939903    -0.39900
N2647       N  0.29432800  0.65437568  0.68360074    -0.37700
N2648       N  0.31500907  0.59214101  0.68559772    -0.40000
N2649       N  0.36960625  0.61684644  0.72291031    -0.39800
N2650       N  0.40354455  0.56406198  0.73044490    -0.37400
N2651       N  0.31344189  0.51516441  0.78252731    -0.38500
N2652       N  0.27622219  0.56563122  0.76394689    -0.40200
C2653       C  0.33479162  0.42430602  0.73768614    -0.05100
C2654       C  0.33350103  0.41480863  0.75890543     0.09100
C2655       C  0.33998952  0.42728020  0.77740572    -0.02500
C2656       C  0.34833873  0.44878712  0.77463944    -0.00700
C2657       C  0.35152175  0.45746939  0.75329505    -0.04400
C2658       C  0.34336332  0.44575879  0.73494773     0.02700
C2659       C  0.32493710  0.39179731  0.76180380     0.09500
C2660       C  0.33830199  0.41783396  0.79927701     0.35400
C2661       C  0.34352551  0.45591793  0.71331540     0.38800
C2662       C  0.33885728  0.37363811  0.75795740    -0.04700
C2663       C  0.33065555  0.35196635  0.75987924     0.02400
C2664       C  0.30844915  0.34821800  0.76596044    -0.04300
C2665       C  0.29473140  0.36647060  0.77054730    -0.00600
C2666       C  0.30291593  0.38814391  0.76829278    -0.03100
C2667       C  0.36167918  0.37733155  0.75196592     0.36100
C2668       C  0.27188297  0.36305853  0.77660858     0.39800
C2669       C  0.34523446  0.33349775  0.75585633     0.38900
C2670       C  0.28853813  0.40678843  0.77211847     0.35800
C2671       C  0.32744878  0.41189237  0.71867025     0.36500
C2672       C  0.35248060  0.46242916  0.79378864     0.39700
N2673       N  0.35684276  0.31876271  0.75261579    -0.38300
N2674       N  0.37988136  0.38033761  0.74720848    -0.39900
N2675       N  0.25365818  0.36034571  0.78146322    -0.37700
N2676       N  0.27711808  0.42171519  0.77512489    -0.40000
N2677       N  0.33699881  0.41021393  0.81670213    -0.39800
N2678       N  0.35556316  0.47334562  0.80909410    -0.37400
N2679       N  0.34368116  0.46408241  0.69608622    -0.38500
N2680       N  0.32166688  0.40192124  0.70350031    -0.40200
C2681       C  0.41984412  0.47557008  0.82163701    -0.05100
C2682       C  0.42708746  0.49499972  0.83198865     0.09100
C2683       C  0.42655025  0.51493034  0.82022176    -0.02500
C2684       C  0.41728900  0.51575981  0.79892196    -0.00700
C2685       C  0.40676324  0.49695383  0.78966399    -0.04400
C2686       C  0.40992077  0.47637573  0.80052021     0.02700
C2687       C  0.43483819  0.49470827  0.85549047     0.09500
C2688       C  0.43499725  0.53483778  0.83037922     0.35400
C2689       C  0.40351324  0.45574016  0.79050291     0.38800
C2690       C  0.45747695  0.49634952  0.86051228    -0.04700
C2691       C  0.46451829  0.49785489  0.88265200     0.02400
C2692       C  0.44898966  0.49724127  0.89999182    -0.04300
C2693       C  0.42639092  0.49470697  0.89495230    -0.00600
C2694       C  0.41933970  0.49372708  0.87279423    -0.03100
C2695       C  0.47351625  0.49615796  0.84283308     0.36100
C2696       C  0.41029880  0.49345352  0.91255279     0.39800
C2697       C  0.48784620  0.49917844  0.88761199     0.38900
C2698       C  0.39606043  0.49193914  0.86771190     0.35800
C2699       C  0.42237363  0.45469741  0.83299520     0.36500
C2700       C  0.41947877  0.53598958  0.78640606     0.39700
N2701       N  0.50646076  0.50016275  0.89157535    -0.38300
N2702       N  0.48627112  0.49592489  0.82868606    -0.39900
N2703       N  0.39741750  0.49235305  0.92654697    -0.37700
N2704       N  0.37752229  0.49047582  0.86353946    -0.40000
N2705       N  0.44171915  0.55067367  0.83854701    -0.39800
N2706       N  0.42138611  0.55231319  0.77677593    -0.37400
N2707       N  0.39904574  0.43881368  0.78298342    -0.38500
N2708       N  0.42440534  0.43804855  0.84202955    -0.40200
C2709       C  0.43234935  0.50347938  0.68282201    -0.05100
C2710       C  0.42640560  0.48548257  0.66947368     0.09100
C2711       C  0.41426335  0.46800118  0.67874558    -0.02500
C2712       C  0.40574547  0.46988010  0.70033185    -0.00700
C2713       C  0.40823733  0.48981619  0.71206847    -0.04400
C2714       C  0.42369521  0.50531953  0.70426721     0.02700
C2715       C  0.43267028  0.48528108  0.64563155     0.09500
C2716       C  0.41033700  0.44826713  0.66593656     0.35400
C2717       C  0.43224074  0.52188285  0.71908864     0.38800
C2718       C  0.45312417  0.47671067  0.63889778    -0.04700
C2719       C  0.45963385  0.47814531  0.61660585     0.02400
C2720       C  0.44552449  0.48798800  0.60075816    -0.04300
C2721       C  0.42474340  0.49605988  0.60757892    -0.00600
C2722       C  0.41842808  0.49475499  0.62991021    -0.03100
C2723       C  0.46757344  0.46668156  0.65507062     0.36100
C2724       C  0.40956660  0.50534663  0.59160716     0.39800
C2725       C  0.48130742  0.47033829  0.61031169     0.38900
C2726       C  0.39724822  0.50332255  0.63684227     0.35800
C2727       C  0.44707521  0.52023895  0.67432410     0.36500
C2728       C  0.39621216  0.45075179  0.71079794     0.39700
N2729       N  0.49861531  0.46412868  0.60534822    -0.38300
N2730       N  0.47902723  0.45865455  0.66802241    -0.39900
N2731       N  0.39748530  0.51276820  0.57885986    -0.37700
N2732       N  0.38036858  0.51013145  0.64243429    -0.40000
N2733       N  0.40725874  0.43250769  0.65570511    -0.39800
N2734       N  0.38969384  0.43484260  0.71900669    -0.37400
N2735       N  0.44000789  0.53454175  0.73100496    -0.38500
N2736       N  0.45887596  0.53354547  0.66748949    -0.40200
C2737       C  0.74587780  0.16485749  0.11738264    -0.05100
C2738       C  0.73958919  0.17744059  0.09889834     0.09100
C2739       C  0.73281701  0.19946844  0.10191476    -0.02500
C2740       C  0.73289422  0.20902401  0.12320051    -0.00700
C2741       C  0.73949928  0.19650117  0.14175821    -0.04400
C2742       C  0.74563206  0.17420862  0.13868007     0.02700
C2743       C  0.74075638  0.16755810  0.07619432     0.09500
C2744       C  0.72611772  0.21238988  0.08297390     0.35400
C2745       C  0.75113475  0.16057548  0.15753153     0.38800
C2746       C  0.72173889  0.15880796  0.06605037    -0.04700
C2747       C  0.72300478  0.14939067  0.04477156     0.02400
C2748       C  0.74351954  0.14758133  0.03393717    -0.04300
C2749       C  0.76230553  0.15735493  0.04365484    -0.00600
C2750       C  0.76098639  0.16702054  0.06477131    -0.03100
C2751       C  0.70082265  0.15971283  0.07749297     0.36100
C2752       C  0.78294268  0.15800061  0.03164896     0.39800
C2753       C  0.70295965  0.14318312  0.03338009     0.38900
C2754       C  0.78043909  0.17666302  0.07471779     0.35800
C2755       C  0.75274703  0.14220560  0.11439972     0.36500
C2756       C  0.72710400  0.23202047  0.12577530     0.39700
N2757       N  0.68686925  0.13852042  0.02427952    -0.38300
N2758       N  0.68416211  0.16045300  0.08669446    -0.39900
N2759       N  0.79941255  0.15849675  0.02209509    -0.37700
N2760       N  0.79595054  0.18436045  0.08267659    -0.40000
N2761       N  0.72071300  0.22262114  0.06782276    -0.39800
N2762       N  0.72254651  0.25039516  0.12777844    -0.37400
N2763       N  0.75541726  0.14969268  0.17258717    -0.38500
N2764       N  0.75829425  0.12416563  0.11194820    -0.40200
C2765       C  0.64255898  0.03607625  0.98579885    -0.05100
C2766       C  0.64643846  0.05894326  0.98622694     0.09100
C2767       C  0.62843237  0.07353140  0.98450344    -0.02500
C2768       C  0.60671713  0.06536840  0.98218919    -0.00700
C2769       C  0.60270903  0.04239683  0.98158492    -0.04400
C2770       C  0.62088152  0.02781422  0.98350686     0.02700
C2771       C  0.66954378  0.06789950  0.98749752     0.09500
C2772       C  0.63238232  0.09707043  0.98484032     0.35400
C2773       C  0.61734833  0.00420445  0.98380801     0.38800
C2774       C  0.68200304  0.07058730  0.96817651    -0.04700
C2775       C  0.70233550  0.08190677  0.96876812     0.02400
C2776       C  0.71011317  0.09169895  0.98868994    -0.04300
C2777       C  0.69908037  0.08584479  0.00853564    -0.00600
C2778       C  0.67877607  0.07428819  0.00780735    -0.03100
C2779       C  0.67365277  0.06186932  0.94753864     0.36100
C2780       C  0.70825477  0.09112695  0.02988231     0.39800
C2781       C  0.71526538  0.08289376  0.94870145     0.38900
C2782       C  0.66720434  0.06894250  0.02800358     0.35800
C2783       C  0.66097733  0.02103806  0.98779885     0.36500
C2784       C  0.58864154  0.08074486  0.97963647     0.39700
N2785       N  0.72511535  0.08372891  0.93241402    -0.38300
N2786       N  0.66698438  0.05478543  0.93115005    -0.39900
N2787       N  0.71525954  0.09467060  0.04726371    -0.37700
N2788       N  0.65802203  0.06450404  0.04410047    -0.40000
N2789       N  0.63564725  0.11582747  0.98513193    -0.39800
N2790       N  0.57425444  0.09305215  0.97757532    -0.37400
N2791       N  0.61453160  0.98537136  0.98402875    -0.38500
N2792       N  0.67568825  0.00905465  0.98940256    -0.40200
C2793       C  0.82004283  0.08704846  0.01671790    -0.05100
C2794       C  0.82980838  0.07712747  0.99812778     0.09100
C2795       C  0.81734095  0.07488035  0.97867345    -0.02500
C2796       C  0.79613101  0.08430476  0.97716314    -0.00700
C2797       C  0.78719853  0.09646637  0.99499607    -0.04400
C2798       C  0.79860566  0.09614276  0.01536879     0.02700
C2799       C  0.85340716  0.06956797  0.99886444     0.09500
C2800       C  0.82661856  0.06334600  0.95995132     0.35400
C2801       C  0.78845692  0.10459432  0.03517222     0.38800
C2802       C  0.85859626  0.04710084  0.00173016    -0.04700
C2803       C  0.88082327  0.04015672  0.00242853     0.02400
C2804       C  0.89810846  0.05565482  0.00036889    -0.04300
C2805       C  0.89286030  0.07809408  0.99707813    -0.00600
C2806       C  0.87064414  0.08499125  0.99636031    -0.03100
C2807       C  0.84098727  0.03110931  0.00373127     0.36100
C2808       C  0.91034333  0.09421494  0.99479440     0.39800
C2809       C  0.88587945  0.01690571  0.00423963     0.38900
C2810       C  0.86545240  0.10801971  0.99285447     0.35800
C2811       C  0.83236863  0.08829664  0.03715197     0.36500
C2812       C  0.78336992  0.08111995  0.95722959     0.39700
N2813       N  0.88992620  0.99834476  0.00551277    -0.38300
N2814       N  0.82688747  0.01837888  0.00520101    -0.39900
N2815       N  0.92432129  0.10703103  0.99292197    -0.37700
N2816       N  0.86127059  0.12638237  0.99005403    -0.40000
N2817       N  0.83398072  0.05405346  0.94505285    -0.39800
N2818       N  0.77337851  0.07842485  0.94123040    -0.37400
N2819       N  0.78064007  0.11049777  0.05150404    -0.38500
N2820       N  0.84231541  0.08934260  0.05338287    -0.40200
C2821       C  0.16921618  0.93191066  0.74000810    -0.05100
C2822       C  0.16420803  0.91565667  0.75572517     0.09100
C2823       C  0.14928325  0.92046963  0.77267813    -0.02500
C2824       C  0.13767921  0.94056272  0.77277225    -0.00700
C2825       C  0.14368612  0.95805091  0.75806245    -0.04400
C2826       C  0.15936873  0.95296176  0.74124252     0.02700
C2827       C  0.17253409  0.89255818  0.75314269     0.09500
C2828       C  0.14512100  0.90408115  0.78965091     0.35400
C2829       C  0.16428542  0.96866954  0.72388309     0.38800
C2830       C  0.19439097  0.88715445  0.75876242    -0.04700
C2831       C  0.20171172  0.86514562  0.75735399     0.02400
C2832       C  0.18710649  0.84825985  0.75049877    -0.04300
C2833       C  0.16526996  0.85383271  0.74455106    -0.00600
C2834       C  0.15807256  0.87585894  0.74582423    -0.03100
C2835       C  0.20926885  0.90428273  0.76621044     0.36100
C2836       C  0.14985124  0.83684664  0.73785435     0.39800
C2837       C  0.22451096  0.86007094  0.76237053     0.38900
C2838       C  0.13557001  0.88135637  0.73991558     0.35800
C2839       C  0.18410283  0.92667574  0.72208013     0.36500
C2840       C  0.11769879  0.94084520  0.78577176     0.39700
N2841       N  0.24271417  0.85605158  0.76632095    -0.38300
N2842       N  0.22110597  0.91801442  0.77206560    -0.39900
N2843       N  0.13754526  0.82332135  0.73249274    -0.37700
N2844       N  0.11760117  0.88577449  0.73536583    -0.40000
N2845       N  0.14190289  0.89107851  0.80321045    -0.39800
N2846       N  0.10184558  0.94014035  0.79632092    -0.37400
N2847       N  0.16815047  0.98108514  0.70994132    -0.38500
N2848       N  0.19598906  0.92247535  0.70780675    -0.40200
C2849       C  0.15889151  0.07501042  0.73194378    -0.05100
C2850       C  0.16589752  0.08505543  0.75173171     0.09100
C2851       C  0.16582140  0.07267625  0.77144441    -0.02500
C2852       C  0.15702642  0.05114692  0.77169066    -0.00700
C2853       C  0.14819767  0.04193564  0.75222524    -0.04400
C2854       C  0.15103087  0.05314421  0.73210379     0.02700
C2855       C  0.17379895  0.10849253  0.75175981     0.09500
C2856       C  0.17465007  0.08220093  0.79148329     0.35400
C2857       C  0.14730170  0.04164228  0.71153239     0.38800
C2858       C  0.16023939  0.12540057  0.76010538    -0.04700
C2859       C  0.16776902  0.14740295  0.76051586     0.02400
C2860       C  0.18901197  0.15278097  0.75250292    -0.04300
C2861       C  0.20239519  0.13579852  0.74371782    -0.00600
C2862       C  0.19486177  0.11379899  0.74352481    -0.03100
C2863       C  0.13838065  0.12018359  0.76816766     0.36100
C2864       C  0.22427008  0.14070356  0.73543866     0.39800
C2865       C  0.15325657  0.16456181  0.76857897     0.38900
C2866       C  0.20897689  0.09645916  0.73519257     0.35800
C2867       C  0.15939625  0.08731991  0.71149225     0.36500
C2868       C  0.15685456  0.03855902  0.79201020     0.39700
N2869       N  0.14163902  0.17821376  0.77498582    -0.38300
N2870       N  0.12091196  0.11622635  0.77464962    -0.39900
N2871       N  0.24167109  0.14463169  0.72873683    -0.37700
N2872       N  0.22020649  0.08261283  0.72853121    -0.40000
N2873       N  0.18173946  0.08983708  0.80743991    -0.39800
N2874       N  0.15668411  0.02849498  0.80820209    -0.37400
N2875       N  0.14465504  0.03234522  0.69511348    -0.38500
N2876       N  0.15972100  0.09722323  0.69520766    -0.40200
C2877       C  0.07954083  0.02277197  0.68116784    -0.05100
C2878       C  0.07046898  0.00313684  0.67276048     0.09100
C2879       C  0.06845227  0.98477121  0.68671376    -0.02500
C2880       C  0.07710724  0.98539387  0.70826496    -0.00700
C2881       C  0.08929434  0.00396539  0.71577524    -0.04400
C2882       C  0.08846359  0.02340958  0.70276706     0.02700
C2883       C  0.06245227  0.00174059  0.64937589     0.09500
C2884       C  0.05795094  0.96490389  0.67859979     0.35400
C2885       C  0.09572407  0.04435814  0.71141484     0.38800
C2886       C  0.07717806  0.99626734  0.63224107    -0.04700
C2887       C  0.06939054  0.99343471  0.61046066     0.02400
C2888       C  0.04674333  0.99593939  0.60564765    -0.04300
C2889       C  0.03208203  0.00177026  0.62282717    -0.00600
C2890       C  0.03990916  0.00454847  0.64456533    -0.03100
C2891       C  0.10030283  0.99299951  0.63719307     0.36100
C2892       C  0.00897175  0.00557039  0.61809014     0.39800
C2893       C  0.08458017  0.98710726  0.59317502     0.38900
C2894       C  0.02473070  0.01005367  0.66214826     0.35800
C2895       C  0.07988481  0.04226547  0.66737121     0.36500
C2896       C  0.07295874  0.96685560  0.72276443     0.39700
N2897       N  0.09664845  0.98201995  0.57934881    -0.38300
N2898       N  0.11874493  0.99034954  0.64118383    -0.39900
N2899       N  0.99054921  0.00866928  0.61432839    -0.37700
N2900       N  0.01267484  0.01435112  0.67625012    -0.40000
N2901       N  0.04963064  0.94906756  0.67206459    -0.39800
N2902       N  0.06963802  0.95182835  0.73399509    -0.37400
N2903       N  0.10079735  0.06153443  0.71790614    -0.38500
N2904       N  0.08012994  0.05777682  0.65630557    -0.40200
C2905       C  0.08953123  0.03567064  0.82761111    -0.05100
C2906       C  0.07760710  0.01864749  0.83799062     0.09100
C2907       C  0.07018948  0.00065180  0.82540924    -0.02500
C2908       C  0.07675011  0.99851283  0.80329044    -0.00700
C2909       C  0.09148308  0.01385130  0.79380266    -0.04400
C2910       C  0.09581468  0.03358961  0.80527292     0.02700
C2911       C  0.07238173  0.01957276  0.86205997     0.09500
C2912       C  0.05650119  0.98387995  0.83551764     0.35400
C2913       C  0.10544195  0.05217217  0.79399713     0.38800
C2914       C  0.05170677  0.02730662  0.86907139    -0.04700
C2915       C  0.04561028  0.02573354  0.89142270     0.02400
C2916       C  0.06040768  0.01671944  0.90715772    -0.04300
C2917       C  0.08141521  0.00949628  0.90009356    -0.00600
C2918       C  0.08728661  0.01082213  0.87760959    -0.03100
C2919       C  0.03640910  0.03625966  0.85303169     0.36100
C2920       C  0.09712100  0.00083679  0.91589427     0.39800
C2921       C  0.02352625  0.03226391  0.89781759     0.38900
C2922       C  0.10849201  0.00266559  0.87029172     0.35800
C2923       C  0.09581424  0.05498603  0.84011371     0.36500
C2924       C  0.06812788  0.98059152  0.79014881     0.39700
N2925       N  0.00589763  0.03742325  0.90286125    -0.38300
N2926       N  0.02423012  0.04334678  0.84019478    -0.39900
N2927       N  0.10964548  0.99389760  0.92848579    -0.37700
N2928       N  0.12537115  0.99612460  0.86438375    -0.40000
N2929       N  0.04561318  0.97052448  0.84365041    -0.39800
N2930       N  0.06078366  0.96636272  0.77985792    -0.37400
N2931       N  0.11223322  0.06760602  0.78515344    -0.38500
N2932       N  0.10091349  0.07033909  0.85015943    -0.40200
C2933       C  0.43446302  0.73823301  0.32288604    -0.05100
C2934       C  0.42100091  0.75564162  0.33012532     0.09100
C2935       C  0.42871997  0.76992101  0.34666412    -0.02500
C2936       C  0.44972183  0.76680312  0.35610441    -0.00700
C2937       C  0.46401307  0.75022004  0.34790391    -0.04400
C2938       C  0.45577996  0.73544344  0.33174723     0.02700
C2939       C  0.39778332  0.75769955  0.32203186     0.09500
C2940       C  0.41473859  0.78777263  0.35420934     0.35400
C2941       C  0.46839290  0.71612464  0.32561677     0.38800
C2942       C  0.38029327  0.75080493  0.33566124    -0.04700
C2943       C  0.35832861  0.75315899  0.32858744     0.02400
C2944       C  0.35359273  0.76188885  0.30745349    -0.04300
C2945       C  0.37120687  0.76871824  0.29375306    -0.00600
C2946       C  0.39320270  0.76680440  0.30113794    -0.03100
C2947       C  0.38499276  0.74107157  0.35700291     0.36100
C2948       C  0.36686921  0.77677195  0.27166728     0.39800
C2949       C  0.34061542  0.74690695  0.34337327     0.38900
C2950       C  0.41119512  0.77404164  0.28720058     0.35800
C2951       C  0.42610173  0.72282950  0.30666580     0.36500
C2952       C  0.45543730  0.78007053  0.37504441     0.39700
N2953       N  0.32653865  0.74189453  0.35519818    -0.38300
N2954       N  0.38884459  0.73334996  0.37400417    -0.39900
N2955       N  0.36342833  0.78311991  0.25401705    -0.37700
N2956       N  0.42557891  0.77976294  0.27608865    -0.40000
N2957       N  0.40356779  0.80196055  0.36021995    -0.39800
N2958       N  0.45855360  0.79063453  0.39058593    -0.37400
N2959       N  0.47833584  0.70060174  0.32088589    -0.38500
N2960       N  0.41942584  0.71056595  0.29370829    -0.40200
C2961       C  0.51670871  0.67894789  0.42317504    -0.05100
C2962       C  0.49650405  0.66767592  0.42134361     0.09100
C2963       C  0.47881740  0.67781039  0.41023771    -0.02500
C2964       C  0.48173659  0.69837970  0.39965205    -0.00700
C2965       C  0.50266768  0.70873778  0.39954851    -0.04400
C2966       C  0.51978035  0.69937478  0.41245271     0.02700
C2967       C  0.49441770  0.64447101  0.42974555     0.09500
C2968       C  0.45778987  0.66654573  0.40898124     0.35400
C2969       C  0.54076583  0.71061569  0.41451261     0.38800
C2970       C  0.48794708  0.64020084  0.45165369    -0.04700
C2971       C  0.48674812  0.61830357  0.45957143     0.02400
C2972       C  0.49245084  0.60044007  0.44572146    -0.04300
C2973       C  0.49900605  0.60486876  0.42373386    -0.00600
C2974       C  0.49966480  0.62670851  0.41576334    -0.03100
C2975       C  0.48306172  0.65846079  0.46618223     0.36100
C2976       C  0.50511748  0.58698805  0.40913997     0.39800
C2977       C  0.48081381  0.61431585  0.48235757     0.38900
C2978       C  0.50593877  0.63100631  0.39310017     0.35800
C2979       C  0.53461544  0.66905567  0.43550418     0.36500
C2980       C  0.46314164  0.70821190  0.38845342     0.39700
N2981       N  0.47617183  0.61112144  0.50056600    -0.38300
N2982       N  0.47929583  0.67308576  0.47776672    -0.39900
N2983       N  0.51021556  0.57280674  0.39750885    -0.37700
N2984       N  0.51085841  0.63449736  0.37501871    -0.40000
N2985       N  0.44104279  0.65751611  0.40792713    -0.39800
N2986       N  0.44765088  0.71555572  0.38014987    -0.37400
N2987       N  0.55754234  0.71952329  0.41606058    -0.38500
N2988       N  0.54884103  0.66109308  0.44537459    -0.40200
C2989       C  0.51099672  0.81194524  0.42510487    -0.05100
C2990       C  0.50689017  0.83088472  0.41220038     0.09100
C2991       C  0.50291949  0.82853720  0.38943761    -0.02500
C2992       C  0.50415268  0.80763633  0.37944124    -0.00700
C2993       C  0.50919347  0.78874957  0.39216694    -0.04400
C2994       C  0.51199997  0.79091079  0.41512606     0.02700
C2995       C  0.50646489  0.85340977  0.42243073     0.09500
C2996       C  0.49702099  0.84765761  0.37638755     0.35400
C2997       C  0.51592347  0.77149973  0.42842519     0.38800
C2998       C  0.52511663  0.86722874  0.42111677    -0.04700
C2999       C  0.52421460  0.88908473  0.42909384     0.02400
C3000       C  0.50480847  0.89714305  0.43919629    -0.04300
C3001       C  0.48636407  0.88291383  0.44110613    -0.00600
C3002       C  0.48705553  0.86139822  0.43230271    -0.03100
C3003       C  0.54518145  0.85895865  0.41119662     0.36100
C3004       C  0.46677942  0.89009796  0.45271341     0.39800
C3005       C  0.54293833  0.90354216  0.42584104     0.38900
C3006       C  0.46758401  0.84757535  0.43288761     0.35800
C3007       C  0.51422097  0.81418188  0.44864136     0.36500
C3008       C  0.49845734  0.80537359  0.35634166     0.39700
N3009       N  0.55784108  0.91509383  0.42308136    -0.38300
N3010       N  0.56116857  0.85226082  0.40331816    -0.39900
N3011       N  0.45120425  0.89577007  0.46208791    -0.37700
N3012       N  0.45203442  0.83656473  0.43316178    -0.40000
N3013       N  0.49217474  0.86289449  0.36602533    -0.39800
N3014       N  0.49320242  0.80364907  0.33809811    -0.37400
N3015       N  0.51888103  0.75596914  0.43905747    -0.38500
N3016       N  0.51672237  0.81602715  0.46744617    -0.40200
C3017       C  0.82007314  0.58618592  0.97169465    -0.05100
C3018       C  0.83364619  0.58275450  0.99026570     0.09100
C3019       C  0.82578258  0.58834668  0.01142191    -0.02500
C3020       C  0.80464498  0.59760469  0.01392620    -0.00700
C3021       C  0.79185321  0.60267835  0.99518663    -0.04400
C3022       C  0.79901410  0.59563635  0.97423260     0.02700
C3023       C  0.85553197  0.57164880  0.98784050     0.09500
C3024       C  0.83950090  0.58454575  0.03060925     0.35400
C3025       C  0.78411491  0.59670281  0.95556797     0.38800
C3026       C  0.87419671  0.58364115  0.98092807    -0.04700
C3027       C  0.89496207  0.57325358  0.97968249     0.02400
C3028       C  0.89724859  0.55087489  0.98568261    -0.04300
C3029       C  0.87834036  0.53869105  0.99173527    -0.00600
C3030       C  0.85759349  0.54905600  0.99280147    -0.03100
C3031       C  0.87200281  0.60671146  0.97523345     0.36100
C3032       C  0.88024239  0.51558064  0.99741409     0.39800
C3033       C  0.91379682  0.58533998  0.97133141     0.38900
C3034       C  0.83827698  0.53653164  0.99918675     0.35800
C3035       C  0.82768824  0.57971085  0.95002518     0.36500
C3036       C  0.79566386  0.60099813  0.03580115     0.39700
N3037       N  0.92879092  0.59487998  0.96445090    -0.38300
N3038       N  0.87020270  0.62510945  0.97065667    -0.39900
N3039       N  0.88172421  0.49712336  0.00186521    -0.37700
N3040       N  0.82281619  0.52663985  0.00430337    -0.40000
N3041       N  0.85052077  0.58154506  0.04587492    -0.39800
N3042       N  0.78841869  0.60358538  0.05323299    -0.37400
N3043       N  0.77215105  0.59736598  0.94073399    -0.38500
N3044       N  0.83381361  0.57464033  0.93271659    -0.40200
C3045       C  0.67051958  0.59713517  0.01967640    -0.05100
C3046       C  0.66901600  0.57612110  0.01019824     0.09100
C3047       C  0.68719161  0.56743909  0.99885400    -0.02500
C3048       C  0.70640882  0.58015684  0.99588472    -0.00700
C3049       C  0.70888275  0.60102490  0.00647432    -0.04400
C3050       C  0.68985654  0.60983835  0.01725924     0.02700
C3051       C  0.64707276  0.56490623  0.00887635     0.09500
C3052       C  0.68570982  0.54551895  0.98946655     0.35400
C3053       C  0.68835053  0.63272119  0.02369503     0.38800
C3054       C  0.63547149  0.56491190  0.98877068    -0.04700
C3055       C  0.61455968  0.55503523  0.98730394     0.02400
C3056       C  0.60363983  0.54742671  0.00656972    -0.04300
C3057       C  0.61563744  0.54718812  0.02679005    -0.00600
C3058       C  0.63747871  0.55521861  0.02762763    -0.03100
C3059       C  0.64491193  0.57560469  0.96955756     0.36100
C3060       C  0.60582995  0.53905554  0.04701182     0.39800
C3061       C  0.60516692  0.55162257  0.96559370     0.38900
C3062       C  0.65013331  0.55371716  0.04786583     0.35800
C3063       C  0.65153165  0.60617614  0.03110504     0.36500
C3064       C  0.72236678  0.57238798  0.97990364     0.39700
N3065       N  0.59806218  0.54852802  0.94817966    -0.38300
N3066       N  0.65245109  0.58425458  0.95433808    -0.39900
N3067       N  0.59827326  0.53261704  0.06328818    -0.37700
N3068       N  0.66027441  0.55241979  0.06396061    -0.40000
N3069       N  0.68447740  0.52804032  0.98202832    -0.39800
N3070       N  0.73489056  0.56606866  0.96702280    -0.37400
N3071       N  0.68618635  0.65081260  0.02917366    -0.38500
N3072       N  0.63645582  0.61328918  0.04030812    -0.40200
C3073       C  0.78373590  0.67012811  0.06345700    -0.05100
C3074       C  0.76624308  0.68179341  0.07329380     0.09100
C3075       C  0.74735876  0.68674845  0.06071503    -0.02500
C3076       C  0.74490713  0.67770151  0.03951377    -0.00700
C3077       C  0.76076523  0.66289582  0.03122327    -0.04400
C3078       C  0.78131742  0.66149427  0.04200465     0.02700
C3079       C  0.76727651  0.68821829  0.09704696     0.09500
C3080       C  0.72995192  0.70014432  0.07002849     0.35400
C3081       C  0.80027671  0.65254004  0.03078495     0.38800
C3082       C  0.77158968  0.71018826  0.10310584    -0.04700
C3083       C  0.77088270  0.71646278  0.12546090     0.02400
C3084       C  0.76626345  0.70064309  0.14198816    -0.04300
C3085       C  0.76248944  0.67850748  0.13587045    -0.00600
C3086       C  0.76287386  0.67237539  0.11348192    -0.03100
C3087       C  0.77643375  0.72638747  0.08622657     0.36100
C3088       C  0.75856192  0.66189714  0.15260920     0.39800
C3089       C  0.77380058  0.73944520  0.13124994     0.38900
C3090       C  0.75841076  0.64976022  0.10726458     0.35800
C3091       C  0.80378731  0.66618249  0.07580894     0.36500
C3092       C  0.72643032  0.68409640  0.02585090     0.39700
N3093       N  0.77604255  0.75778829  0.13583948    -0.38300
N3094       N  0.78024914  0.73928551  0.07272366    -0.39900
N3095       N  0.75544491  0.64867155  0.16597823    -0.37700
N3096       N  0.75488703  0.63173164  0.10226021    -0.40000
N3097       N  0.71608570  0.71082997  0.07750415    -0.39800
N3098       N  0.71193849  0.68980970  0.01487664    -0.37400
N3099       N  0.81591110  0.64631958  0.02187201    -0.38500
N3100       N  0.81967303  0.66284426  0.08579875    -0.40200
C3101       C  0.81996985  0.88657552  0.27080086    -0.05100
C3102       C  0.81603948  0.90112521  0.25310567     0.09100
C3103       C  0.80462285  0.89364077  0.23433624    -0.02500
C3104       C  0.79721933  0.87167208  0.23316384    -0.00700
C3105       C  0.80166101  0.85682455  0.25059589    -0.04400
C3106       C  0.81296526  0.86445724  0.26951322     0.02700
C3107       C  0.82599056  0.92365361  0.25317541     0.09500
C3108       C  0.80115612  0.90846360  0.21591669     0.35400
C3109       C  0.81859155  0.84929338  0.28711121     0.38800
C3110       C  0.84720026  0.92667415  0.24436864    -0.04700
C3111       C  0.85719158  0.94757594  0.24482951     0.02400
C3112       C  0.84544981  0.96610950  0.25280204    -0.04300
C3113       C  0.82461435  0.96275926  0.26268040    -0.00600
C3114       C  0.81483304  0.94163511  0.26266260    -0.03100
C3115       C  0.85911333  0.90792712  0.23558241     0.36100
C3116       C  0.81411076  0.98056557  0.27455944     0.39800
C3117       C  0.88025825  0.94924774  0.23888894     0.38900
C3118       C  0.79370605  0.93813781  0.27319242     0.35800
C3119       C  0.83198052  0.89422753  0.28998783     0.36500
C3120       C  0.78478206  0.86448067  0.21406889     0.39700
N3121       N  0.89874322  0.94978547  0.23429875    -0.38300
N3122       N  0.86856999  0.89294403  0.22863667    -0.39900
N3123       N  0.80583045  0.99466589  0.28430324    -0.37700
N3124       N  0.77692309  0.93527019  0.28173933    -0.40000
N3125       N  0.79859251  0.92031952  0.20121323    -0.39800
N3126       N  0.77483022  0.85876678  0.19884792    -0.37400
N3127       N  0.82319521  0.83715989  0.30107559    -0.38500
N3128       N  0.84158538  0.90035837  0.30526809    -0.40200
C3129       C  0.62775929  0.73761149  0.32432605    -0.05100
C3130       C  0.61151545  0.73405140  0.30808183     0.09100
C3131       C  0.61784102  0.73059798  0.28602123    -0.02500
C3132       C  0.64030095  0.73147203  0.28008616    -0.00700
C3133       C  0.65658398  0.73562818  0.29626536    -0.04400
C3134       C  0.65021288  0.73832135  0.31847734     0.02700
C3135       C  0.58774318  0.73582351  0.31423748     0.09500
C3136       C  0.60114509  0.72687135  0.26935130     0.35400
C3137       C  0.66672585  0.74168352  0.33540551     0.38800
C3138       C  0.57780819  0.75666735  0.31555180    -0.04700
C3139       C  0.55683723  0.75896022  0.32523386     0.02400
C3140       C  0.54629858  0.74051599  0.33509741    -0.04300
C3141       C  0.55412807  0.71932938  0.32883665    -0.00600
C3142       C  0.57527017  0.71701493  0.31941743    -0.03100
C3143       C  0.58939351  0.77579535  0.30712565     0.36100
C3144       C  0.53999199  0.70013985  0.33019079     0.39800
C3145       C  0.54593280  0.78007155  0.32367106     0.38900
C3146       C  0.58429734  0.69535015  0.31520204     0.35800
C3147       C  0.62121385  0.74107607  0.34704492     0.36500
C3148       C  0.64648742  0.72942411  0.25710095     0.39700
N3149       N  0.53783607  0.79718679  0.32182008    -0.38300
N3150       N  0.59866982  0.79098487  0.30032733    -0.39900
N3151       N  0.52879431  0.68475265  0.33115445    -0.37700
N3152       N  0.59150917  0.67807885  0.31174861    -0.40000
N3153       N  0.58781784  0.72386607  0.25605614    -0.39800
N3154       N  0.65139841  0.72791095  0.23875100    -0.37400
N3155       N  0.67975812  0.74431496  0.34906269    -0.38500
N3156       N  0.61585463  0.74390921  0.36510797    -0.40200
C3157       C  0.69420026  0.61583691  0.21633439    -0.05100
C3158       C  0.69344866  0.60368298  0.23615179     0.09100
C3159       C  0.70275819  0.61267525  0.25543435    -0.02500
C3160       C  0.71171711  0.63410240  0.25518488    -0.00700
C3161       C  0.71048148  0.64721580  0.23588127    -0.04400
C3162       C  0.70236339  0.63761838  0.21621078     0.02700
C3163       C  0.68042815  0.58272505  0.23738526     0.09500
C3164       C  0.70221671  0.60022038  0.27583173     0.35400
C3165       C  0.70117529  0.65040928  0.19606255     0.38800
C3166       C  0.69090212  0.56203815  0.23935759    -0.04700
C3167       C  0.67820952  0.54272015  0.24239873     0.02400
C3168       C  0.65505038  0.54407548  0.24341084    -0.04300
C3169       C  0.64464314  0.56450255  0.23943462    -0.00600
C3170       C  0.65722288  0.58378908  0.23710961    -0.03100
C3171       C  0.71470937  0.56074369  0.23861353     0.36100
C3172       C  0.62097979  0.56543089  0.23623365     0.39800
C3173       C  0.68893845  0.52154814  0.24449334     0.38900
C3174       C  0.64622543  0.60488249  0.23498522     0.35800
C3175       C  0.68568323  0.60613348  0.19623272     0.36500
C3176       C  0.72247391  0.64247841  0.27482474     0.39700
N3177       N  0.69758508  0.50464509  0.24586003    -0.38300
N3178       N  0.73372639  0.55974187  0.23807156    -0.39900
N3179       N  0.60220639  0.56608565  0.23303499    -0.37700
N3180       N  0.63751123  0.62172737  0.23332394    -0.40000
N3181       N  0.70172308  0.59028170  0.29209289    -0.39800
N3182       N  0.73117191  0.64908387  0.29044824    -0.37400
N3183       N  0.70017843  0.66058564  0.17996979    -0.38500
N3184       N  0.67882951  0.59833908  0.18025094    -0.40200
C3185       C  0.88200200  0.76127100  0.15909660    -0.05100
C3186       C  0.89819756  0.76952148  0.17355310     0.09100
C3187       C  0.89184733  0.77887580  0.19379397    -0.02500
C3188       C  0.86944877  0.77908015  0.20006522    -0.00700
C3189       C  0.85323085  0.76958569  0.18616883    -0.04400
C3190       C  0.85963477  0.76127171  0.16532855     0.02700
C3191       C  0.92203156  0.76735236  0.16765311     0.09500
C3192       C  0.90853235  0.78768506  0.20843692     0.35400
C3193       C  0.84324964  0.75283338  0.15009786     0.38800
C3194       C  0.93291433  0.78431499  0.15620082    -0.04700
C3195       C  0.95431804  0.78089702  0.14772536     0.02400
C3196       C  0.96479881  0.76021305  0.15031541    -0.04300
C3197       C  0.95466674  0.74418076  0.16396798    -0.00600
C3198       C  0.93329329  0.74764535  0.17232218    -0.03100
C3199       C  0.92160075  0.80498544  0.15234787     0.36100
C3200       C  0.96604112  0.72381191  0.16907571     0.39800
C3201       C  0.96486742  0.79870016  0.13595489     0.38900
C3202       C  0.92241082  0.73052461  0.18493791     0.35800
C3203       C  0.88850483  0.75239172  0.13789208     0.36500
C3204       C  0.86339230  0.78817449  0.22129981     0.39700
N3205       N  0.97257503  0.81374153  0.12718657    -0.38300
N3206       N  0.91253571  0.82144670  0.14928381    -0.39900
N3207       N  0.97507172  0.70753002  0.17307394    -0.37700
N3208       N  0.91363119  0.71688473  0.19493662    -0.40000
N3209       N  0.92189014  0.79467205  0.22009872    -0.39800
N3210       N  0.85856187  0.79551694  0.23820110    -0.37400
N3211       N  0.83026348  0.74605396  0.13790052    -0.38500
N3212       N  0.89376653  0.74533337  0.12100159    -0.40200
C3213       C  0.81929679  0.91843982  0.51511975    -0.05100
C3214       C  0.82802988  0.92793097  0.49579322     0.09100
C3215       C  0.81510775  0.92821379  0.47652021    -0.02500
C3216       C  0.79417619  0.91808795  0.47622242    -0.00700
C3217       C  0.78627680  0.90630311  0.49487871    -0.04400
C3218       C  0.79835656  0.90811398  0.51485952     0.02700
C3219       C  0.85072521  0.93795432  0.49567734     0.09500
C3220       C  0.82367275  0.93847251  0.45669697     0.35400
C3221       C  0.78937713  0.90029031  0.53549512     0.38800
C3222       C  0.86953393  0.92436959  0.49465899    -0.04700
C3223       C  0.89081247  0.93373185  0.49317810     0.02400
C3224       C  0.89359399  0.95692042  0.49292156    -0.04300
C3225       C  0.87466386  0.97048042  0.49452206    -0.00600
C3226       C  0.85340316  0.96102838  0.49577003    -0.03100
C3227       C  0.86692857  0.90064112  0.49484746     0.36100
C3228       C  0.87696330  0.99420774  0.49567099     0.39800
C3229       C  0.90974864  0.91932900  0.49114271     0.38900
C3230       C  0.83414358  0.97505583  0.49719240     0.35800
C3231       C  0.83212838  0.91902812  0.53527990     0.36500
C3232       C  0.78049089  0.92068450  0.45679712     0.39700
N3233       N  0.92484980  0.90784059  0.48953217    -0.38300
N3234       N  0.86483732  0.88171741  0.49512449    -0.39900
N3235       N  0.87872464  0.01314124  0.49666744    -0.37700
N3236       N  0.81871371  0.98616305  0.49822528    -0.40000
N3237       N  0.83055477  0.94663178  0.44090596    -0.39800
N3238       N  0.76981163  0.92289181  0.44116286    -0.37400
N3239       N  0.78253043  0.89492615  0.55245998    -0.38500
N3240       N  0.84243473  0.91937436  0.55131587    -0.40200
C3241       C  0.67881764  0.93164850  0.48547301    -0.05100
C3242       C  0.66668818  0.92831912  0.50495254     0.09100
C3243       C  0.67698446  0.91804425  0.52306126    -0.02500
C3244       C  0.69838493  0.90907209  0.52088047    -0.00700
C3245       C  0.70886088  0.90869520  0.49998951    -0.04400
C3246       C  0.69969338  0.92179329  0.48289074     0.02700
C3247       C  0.64260341  0.93402583  0.50553477     0.09500
C3248       C  0.66518628  0.91598445  0.54371949     0.35400
C3249       C  0.71156045  0.92511112  0.46243813     0.38800
C3250       C  0.62734687  0.92035628  0.49455600    -0.04700
C3251       C  0.60476443  0.92589749  0.49391267     0.02400
C3252       C  0.59706693  0.94541933  0.50415692    -0.04300
C3253       C  0.61248111  0.95887932  0.51557900    -0.00600
C3254       C  0.63506618  0.95315528  0.51623631    -0.03100
C3255       C  0.63504929  0.90050319  0.48374537     0.36100
C3256       C  0.60546091  0.97917330  0.52599837     0.39800
C3257       C  0.58951579  0.91107750  0.48301053     0.38900
C3258       C  0.65070977  0.96723314  0.52752862     0.35800
C3259       C  0.66940297  0.94470193  0.46780438     0.36500
C3260       C  0.70935855  0.90081621  0.54035628     0.39700
N3261       N  0.57746105  0.89918008  0.47427516    -0.38300
N3262       N  0.64135285  0.88476532  0.47509582    -0.39900
N3263       N  0.59988215  0.99534311  0.53435338    -0.37700
N3264       N  0.66317675  0.97843582  0.53659371    -0.40000
N3265       N  0.65576237  0.91435821  0.56020008    -0.39800
N3266       N  0.71788237  0.89508234  0.55642198    -0.37400
N3267       N  0.72065882  0.92773545  0.44590913    -0.38500
N3268       N  0.66189009  0.95521485  0.45379100    -0.40200
C3269       C  0.76275729  0.82694719  0.42365770    -0.05100
C3270       C  0.74353819  0.82677182  0.41071436     0.09100
C3271       C  0.72357447  0.83392869  0.41995208    -0.02500
C3272       C  0.72319508  0.84298157  0.44135172    -0.00700
C3273       C  0.74327175  0.84747178  0.45270440    -0.04400
C3274       C  0.76258914  0.83680176  0.44472954     0.02700
C3275       C  0.74425913  0.81908348  0.38731129     0.09500
C3276       C  0.70337052  0.83196219  0.40731488     0.35400
C3277       C  0.78217627  0.83515968  0.45832957     0.38800
C3278       C  0.73863771  0.79723582  0.38187192    -0.04700
C3279       C  0.73905479  0.79025489  0.35970295     0.02400
C3280       C  0.74470676  0.80525562  0.34274597    -0.04300
C3281       C  0.75007553  0.82723707  0.34829236    -0.00600
C3282       C  0.75017363  0.83398025  0.37050586    -0.03100
C3283       C  0.73273105  0.78187573  0.39918154     0.36100
C3284       C  0.75487014  0.84318260  0.33113187     0.39800
C3285       C  0.73464405  0.76736723  0.35452547     0.38900
C3286       C  0.75649032  0.85629404  0.37617128     0.35800
C3287       C  0.78272901  0.81702650  0.41514693     0.36500
C3288       C  0.70206043  0.84491438  0.45224905     0.39700
N3289       N  0.73127646  0.74909996  0.35033865    -0.38300
N3290       N  0.72800059  0.76961605  0.41298625    -0.39900
N3291       N  0.75861240  0.85590531  0.31743720    -0.37700
N3292       N  0.76167651  0.87402817  0.38076984    -0.40000
N3293       N  0.68733587  0.83038947  0.39712620    -0.39800
N3294       N  0.68507179  0.84629150  0.46076438    -0.37400
N3295       N  0.79784851  0.83384263  0.46910585    -0.38500
N3296       N  0.79859192  0.80900468  0.40832809    -0.40200
C3297       C  0.92497994  0.49171920  0.68119114    -0.05100
C3298       C  0.91807389  0.50771988  0.66583188     0.09100
C3299       C  0.90003028  0.52132702  0.67107800    -0.02500
C3300       C  0.88983256  0.51995559  0.69198870    -0.00700
C3301       C  0.89713226  0.50428911  0.70779135    -0.04400
C3302       C  0.91389748  0.48931492  0.70150211     0.02700
C3303       C  0.92903147  0.50959555  0.64364750     0.09500
C3304       C  0.89163831  0.53653018  0.65462263     0.35400
C3305       C  0.91807456  0.46985802  0.71468695     0.38800
C3306       C  0.92601866  0.49303680  0.62766528    -0.04700
C3307       C  0.93623826  0.49474207  0.60682769     0.02400
C3308       C  0.94838338  0.51393007  0.60098520    -0.04300
C3309       C  0.95078968  0.53081031  0.61698385    -0.00600
C3310       C  0.94182820  0.52825596  0.63834475    -0.03100
C3311       C  0.91203484  0.47428344  0.63258723     0.36100
C3312       C  0.96148469  0.55140313  0.61139122     0.39800
C3313       C  0.93459329  0.47624555  0.59179383     0.38900
C3314       C  0.94573602  0.54492821  0.65499123     0.35800
C3315       C  0.94345897  0.47754061  0.67600436     0.36500
C3316       C  0.87140380  0.53437812  0.69633485     0.39700
N3317       N  0.93330227  0.46142799  0.57989861    -0.38300
N3318       N  0.90085498  0.45936995  0.63654079    -0.39900
N3319       N  0.96973648  0.56800812  0.60703408    -0.37700
N3320       N  0.94886805  0.55816317  0.66832239    -0.40000
N3321       N  0.88493985  0.54859239  0.64147229    -0.39800
N3322       N  0.85645211  0.54597002  0.69841671    -0.37400
N3323       N  0.92097277  0.45390563  0.72468643    -0.38500
N3324       N  0.95820805  0.46624699  0.67184620    -0.40200
C3325       C  0.92982219  0.46762371  0.86921782    -0.05100
C3326       C  0.92940014  0.48828435  0.85857204     0.09100
C3327       C  0.93746851  0.50703476  0.86961704    -0.02500
C3328       C  0.94563159  0.50522703  0.89129444    -0.00700
C3329       C  0.94681000  0.48442020  0.90170292    -0.04400
C3330       C  0.93890000  0.46560586  0.89055119     0.02700
C3331       C  0.91898889  0.49066223  0.83629879     0.09500
C3332       C  0.93725331  0.52823590  0.85862188     0.35400
C3333       C  0.93913909  0.44434911  0.90143055     0.38800
C3334       C  0.89710915  0.49778868  0.83464597    -0.04700
C3335       C  0.88700400  0.50016719  0.81385308     0.02400
C3336       C  0.89907474  0.49649533  0.79384320    -0.04300
C3337       C  0.92077953  0.48762293  0.79605094    -0.00600
C3338       C  0.93065479  0.48522237  0.81708818    -0.03100
C3339       C  0.88480266  0.50234912  0.85466021     0.36100
C3340       C  0.93283934  0.47893016  0.77748969     0.39800
C3341       C  0.86381550  0.50599015  0.81369738     0.38900
C3342       C  0.95283784  0.47653607  0.81913554     0.35800
C3343       C  0.92023250  0.44861037  0.85844293     0.36500
C3344       C  0.95281321  0.52485558  0.90285100     0.39700
N3345       N  0.84547356  0.51112483  0.81402053    -0.38300
N3346       N  0.87509092  0.50596857  0.87064158    -0.39900
N3347       N  0.94335863  0.47169007  0.76337129    -0.37700
N3348       N  0.97045263  0.46948298  0.82080750    -0.40000
N3349       N  0.93712926  0.54511432  0.84978793    -0.39800
N3350       N  0.95827721  0.54056628  0.91212534    -0.37400
N3351       N  0.93928416  0.42740984  0.91015167    -0.38500
N3352       N  0.91240596  0.43351917  0.84985518    -0.40200
C3353       C  0.78949399  0.39677058  0.72831349    -0.05100
C3354       C  0.81228062  0.40020749  0.73103747     0.09100
C3355       C  0.82666952  0.38199884  0.73140151    -0.02500
C3356       C  0.81833048  0.36042441  0.72923536    -0.00700
C3357       C  0.79535998  0.35679422  0.72722693    -0.04400
C3358       C  0.78098725  0.37519468  0.72681111     0.02700
C3359       C  0.82117704  0.42295186  0.73454821     0.09500
C3360       C  0.85013022  0.38552067  0.73427158     0.35400
C3361       C  0.75731581  0.37206136  0.72594947     0.38800
C3362       C  0.81947979  0.43292509  0.75538489    -0.04700
C3363       C  0.82951069  0.45347717  0.75934215     0.02400
C3364       C  0.84269935  0.46367477  0.74291880    -0.04300
C3365       C  0.84305054  0.45423405  0.72153147    -0.00600
C3366       C  0.83205707  0.43413043  0.71738518    -0.03100
C3367       C  0.80805895  0.42156482  0.77305545     0.36100
C3368       C  0.85517678  0.46435442  0.70368870     0.39800
C3369       C  0.82589675  0.46407694  0.78040426     0.38900
C3370       C  0.83233359  0.42454224  0.69550582     0.35800
C3371       C  0.77480519  0.41554840  0.72717014     0.36500
C3372       C  0.83356770  0.34205605  0.72862472     0.39700
N3373       N  0.82255120  0.47212157  0.79732682    -0.38300
N3374       N  0.79903683  0.41241444  0.78713148    -0.39900
N3375       N  0.86432175  0.47180691  0.68872939    -0.37700
N3376       N  0.83246977  0.41688558  0.67806315    -0.40000
N3377       N  0.86882899  0.38839807  0.73655640    -0.39800
N3378       N  0.84574666  0.32743071  0.72811938    -0.37400
N3379       N  0.73842450  0.36961433  0.72538206    -0.38500
N3380       N  0.76315259  0.43057199  0.72619011    -0.40200
C3381       C  0.57551938  0.25814098  0.64485545    -0.05100
C3382       C  0.58189906  0.24118952  0.65937653     0.09100
C3383       C  0.56649340  0.22478186  0.66511300    -0.02500
C3384       C  0.54445207  0.22629283  0.65784366    -0.00700
C3385       C  0.53788224  0.24337342  0.64330775    -0.04400
C3386       C  0.55407994  0.25846623  0.63583257     0.02700
C3387       C  0.60478261  0.24066348  0.66881047     0.09500
C3388       C  0.57349376  0.20610007  0.67826782     0.35400
C3389       C  0.54955416  0.27393184  0.61828860     0.38800
C3390       C  0.60807352  0.24445759  0.69152015    -0.04700
C3391       C  0.62936929  0.24311019  0.70069379     0.02400
C3392       C  0.64780395  0.23885600  0.68708700    -0.04300
C3393       C  0.64463603  0.23623074  0.66414279    -0.00600
C3394       C  0.62315868  0.23644002  0.65517280    -0.03100
C3395       C  0.58949275  0.25004791  0.70544788     0.36100
C3396       C  0.66339015  0.23305015  0.64971483     0.39800
C3397       C  0.63232838  0.24692385  0.72411331     0.38900
C3398       C  0.61990757  0.23190827  0.63193759     0.35800
C3399       C  0.59098725  0.27555398  0.63943990     0.36500
C3400       C  0.52892156  0.20941626  0.66445973     0.39700
N3401       N  0.63469950  0.24991802  0.74278864    -0.38300
N3402       N  0.57465666  0.25448703  0.71653015    -0.39900
N3403       N  0.67833902  0.23077815  0.63813019    -0.37700
N3404       N  0.61725836  0.22832200  0.61340606    -0.40000
N3405       N  0.57918273  0.19117490  0.68865622    -0.39800
N3406       N  0.51675608  0.19581502  0.66990969    -0.37400
N3407       N  0.54743871  0.28610911  0.60378651    -0.38500
N3408       N  0.60328496  0.28946553  0.63516114    -0.40200
C3409       C  0.74676118  0.31703822  0.55299349    -0.05100
C3410       C  0.74791017  0.32939871  0.57264085     0.09100
C3411       C  0.75084646  0.35235871  0.57163278    -0.02500
C3412       C  0.75153747  0.36305641  0.55111126    -0.00700
C3413       C  0.74887632  0.35090430  0.53139775    -0.04400
C3414       C  0.74706999  0.32780500  0.53236099     0.02700
C3415       C  0.74503677  0.31851275  0.59451931     0.09500
C3416       C  0.75272461  0.36504268  0.59178939     0.35400
C3417       C  0.74489655  0.31518806  0.51225161     0.38800
C3418       C  0.76352747  0.31343338  0.60759718    -0.04700
C3419       C  0.76067006  0.30452017  0.62886266     0.02400
C3420       C  0.73923229  0.30069578  0.63719801    -0.04300
C3421       C  0.72073803  0.30546764  0.62386975    -0.00600
C3422       C  0.72365867  0.31446900  0.60265295    -0.03100
C3423       C  0.78547936  0.31762803  0.59916593     0.36100
C3424       C  0.69865539  0.30187895  0.63224068     0.39800
C3425       C  0.77985457  0.29872862  0.64189041     0.38900
C3426       C  0.70465442  0.32017630  0.58933276     0.35800
C3427       C  0.74489118  0.29329291  0.55413210     0.36500
C3428       C  0.75592285  0.38651987  0.55029437     0.39700
N3429       N  0.79517842  0.29406377  0.65222521    -0.38300
N3430       N  0.80294905  0.32107224  0.59238680    -0.39900
N3431       N  0.68103901  0.29900022  0.63890565    -0.37700
N3432       N  0.68955973  0.32481323  0.57865674    -0.40000
N3433       N  0.75424103  0.37517220  0.60784880    -0.39800
N3434       N  0.76007785  0.40510010  0.54976524    -0.37400
N3435       N  0.74322380  0.30488622  0.49632343    -0.38500
N3436       N  0.74347495  0.27433333  0.55514456    -0.40200
C3437       C  0.88688886  0.26709214  0.78817793    -0.05100
C3438       C  0.88977481  0.26454456  0.81105316     0.09100
C3439       C  0.87127296  0.26418402  0.82504192    -0.02500
C3440       C  0.84990182  0.26673072  0.81626638    -0.00700
C3441       C  0.84683063  0.26931928  0.79325136    -0.04400
C3442       C  0.86556571  0.26946094  0.77925778     0.02700
C3443       C  0.91239317  0.26248241  0.82058311     0.09500
C3444       C  0.87430981  0.26100310  0.84853902     0.35400
C3445       C  0.86306520  0.27125849  0.75554274     0.38800
C3446       C  0.92466263  0.28143368  0.82567159    -0.04700
C3447       C  0.94505364  0.27957039  0.83671749     0.02400
C3448       C  0.95303363  0.25855894  0.84346493    -0.04300
C3449       C  0.94273981  0.23977426  0.83388142    -0.00600
C3450       C  0.92187309  0.24164368  0.82383450    -0.03100
C3451       C  0.91630373  0.30288339  0.81927691     0.36100
C3452       C  0.95426723  0.21895316  0.83218608     0.39800
C3453       C  0.95803697  0.29935007  0.83965201     0.38900
C3454       C  0.91013100  0.22211395  0.81670171     0.35800
C3455       C  0.90595489  0.26688127  0.77379204     0.36500
C3456       C  0.83121662  0.26729436  0.83113402     0.39700
N3457       N  0.96777249  0.31558977  0.84165073    -0.38300
N3458       N  0.90971225  0.31994043  0.81395917    -0.39900
N3459       N  0.96339837  0.20231760  0.83066069    -0.37700
N3460       N  0.90067246  0.20656498  0.81108535    -0.40000
N3461       N  0.87679242  0.25832905  0.86725149    -0.39800
N3462       N  0.81635774  0.26774889  0.84304648    -0.37400
N3463       N  0.86112320  0.27272264  0.73663105    -0.38500
N3464       N  0.92117805  0.26663857  0.76234595    -0.40200
C3465       C  0.77097580  0.17640054  0.92370999    -0.05100
C3466       C  0.75202603  0.17956149  0.91071603     0.09100
C3467       C  0.73120488  0.17473615  0.91973763    -0.02500
C3468       C  0.72956666  0.16458920  0.94062703    -0.00700
C3469       C  0.74885630  0.15742106  0.95182427    -0.04400
C3470       C  0.76925077  0.16649446  0.94466934     0.02700
C3471       C  0.75395272  0.18887351  0.88791277     0.09500
C3472       C  0.71146407  0.18027388  0.90748357     0.35400
C3473       C  0.78805928  0.16746445  0.95937671     0.38800
C3474       C  0.75332588  0.17476905  0.86950985    -0.04700
C3475       C  0.75536913  0.18337562  0.84797652     0.02400
C3476       C  0.75797726  0.20635998  0.84459270    -0.04300
C3477       C  0.75875732  0.22042192  0.86327408    -0.00600
C3478       C  0.75673065  0.21167405  0.88474547    -0.03100
C3479       C  0.75083462  0.15125285  0.87284569     0.36100
C3480       C  0.76107180  0.24404078  0.86063377     0.39800
C3481       C  0.75552238  0.16830035  0.82945176     0.38900
C3482       C  0.75738299  0.22616164  0.90372114     0.35800
C3483       C  0.79232014  0.18315044  0.91537397     0.36500
C3484       C  0.70824285  0.16365925  0.95131968     0.39700
N3485       N  0.75563384  0.15621933  0.81472656    -0.38300
N3486       N  0.74884472  0.13251344  0.87559007    -0.39900
N3487       N  0.76299429  0.26288332  0.85863971    -0.37700
N3488       N  0.75795778  0.23765333  0.91889673    -0.40000
N3489       N  0.69572932  0.18466114  0.89766325    -0.39800
N3490       N  0.69124146  0.16306786  0.95990126    -0.37400
N3491       N  0.80310915  0.16848047  0.97103444    -0.38500
N3492       N  0.80932719  0.18851857  0.90866846    -0.40200
C3493       C  0.56624666  0.00758987  0.81247532    -0.05100
C3494       C  0.56901505  0.98728669  0.82335189     0.09100
C3495       C  0.58023710  0.97010596  0.81261196    -0.02500
C3496       C  0.59074416  0.97388577  0.79218663    -0.00700
C3497       C  0.59026976  0.99510903  0.78241465    -0.04400
C3498       C  0.57656010  0.01140856  0.79199227     0.02700
C3499       C  0.56144397  0.98447001  0.84671069     0.09500
C3500       C  0.58152954  0.94864735  0.82305793     0.35400
C3501       C  0.57307411  0.03224844  0.78084026     0.38800
C3502       C  0.53902704  0.98105596  0.85154797    -0.04700
C3503       C  0.53197604  0.97915127  0.87362889     0.02400
C3504       C  0.54742372  0.98026842  0.89122117    -0.04300
C3505       C  0.56995519  0.98368229  0.88620702    -0.00600
C3506       C  0.57688220  0.98563099  0.86407851    -0.03100
C3507       C  0.52319077  0.97946647  0.83370937     0.36100
C3508       C  0.58621398  0.98491364  0.90368416     0.39800
C3509       C  0.50858982  0.97697482  0.87808639     0.38900
C3510       C  0.60003894  0.98873759  0.85906706     0.35800
C3511       C  0.55338279  0.02483806  0.82277507     0.36500
C3512       C  0.60227377  0.95576769  0.78195921     0.39700
N3513       N  0.48994350  0.97526603  0.88162708    -0.38300
N3514       N  0.51054120  0.97821358  0.81949993    -0.39900
N3515       N  0.59922722  0.98604851  0.91757553    -0.37700
N3516       N  0.61849237  0.99104645  0.85492849    -0.40000
N3517       N  0.58257374  0.93156420  0.83142388    -0.39800
N3518       N  0.61071560  0.94047094  0.77444070    -0.37400
N3519       N  0.57033416  0.04888386  0.77196646    -0.38500
N3520       N  0.54302187  0.03852429  0.83099332    -0.40200
C3521       C  0.59742514  0.99762260  0.66311983    -0.05100
C3522       C  0.57447870  0.00089238  0.66201131     0.09100
C3523       C  0.56223708  0.00309261  0.68165742    -0.02500
C3524       C  0.57307841  0.00312918  0.70228353    -0.00700
C3525       C  0.59619459  0.00122246  0.70327366    -0.04400
C3526       C  0.60825942  0.99786958  0.68363306     0.02700
C3527       C  0.56345431  0.00228552  0.63997233     0.09500
C3528       C  0.53855354  0.00573316  0.68053903     0.35400
C3529       C  0.63175621  0.99366008  0.68460378     0.38800
C3530       C  0.55377804  0.98345167  0.63055270    -0.04700
C3531       C  0.54516150  0.98428763  0.60897995     0.02400
C3532       C  0.54671537  0.00388116  0.59633233    -0.04300
C3533       C  0.55539559  0.02307946  0.60631333    -0.00600
C3534       C  0.56382927  0.02219946  0.62799814    -0.03100
C3535       C  0.55318506  0.96303710  0.64294003     0.36100
C3536       C  0.55626117  0.04364796  0.59420980     0.39800
C3537       C  0.53403686  0.96508311  0.60012985     0.38900
C3538       C  0.57346921  0.04167002  0.63789578     0.35800
C3539       C  0.60987805  0.99403647  0.64305362     0.36500
C3540       C  0.56052723  0.00558368  0.72240823     0.39700
N3541       N  0.52503963  0.94982618  0.59311679    -0.38300
N3542       N  0.55277383  0.94675546  0.65282724    -0.39900
N3543       N  0.55682203  0.06012804  0.58465935    -0.37700
N3544       N  0.58123999  0.05713667  0.64584082    -0.40000
N3545       N  0.51964059  0.00780542  0.67956985    -0.39800
N3546       N  0.55039679  0.00739573  0.73843384    -0.37400
N3547       N  0.65038359  0.98973477  0.68534424    -0.38500
N3548       N  0.61975639  0.99112934  0.62702822    -0.40200
C3549       C  0.66770313  0.07282650  0.77266994    -0.05100
C3550       C  0.67153505  0.08570565  0.75378779     0.09100
C3551       C  0.66802054  0.07647068  0.73286936    -0.02500
C3552       C  0.65907890  0.05514675  0.73086697    -0.00700
C3553       C  0.65093641  0.04380038  0.74973820    -0.04400
C3554       C  0.65791710  0.05178093  0.77072023     0.02700
C3555       C  0.68056769  0.10856482  0.75569963     0.09500
C3556       C  0.67383064  0.08895449  0.71331604     0.35400
C3557       C  0.65667524  0.03807092  0.79023537     0.38800
C3558       C  0.70349889  0.11204054  0.75614019    -0.04700
C3559       C  0.71207538  0.13362120  0.75657187     0.02400
C3560       C  0.69770959  0.15202934  0.75643217    -0.04300
C3561       C  0.67465926  0.14840889  0.75611170    -0.00600
C3562       C  0.66617928  0.12676022  0.75588843    -0.03100
C3563       C  0.71826615  0.09329052  0.75580576     0.36100
C3564       C  0.65955178  0.16688273  0.75648693     0.39800
C3565       C  0.73576877  0.13673228  0.75630859     0.38900
C3566       C  0.64257562  0.12310739  0.75586935     0.35800
C3567       C  0.67413659  0.08121444  0.79409778     0.36500
C3568       C  0.66042202  0.04449185  0.70957800     0.39700
N3569       N  0.75466808  0.13917180  0.75613182    -0.38300
N3570       N  0.72998825  0.07829412  0.75552424    -0.39900
N3571       N  0.64748556  0.18160951  0.75671838    -0.37700
N3572       N  0.62375555  0.12012817  0.75592435    -0.40000
N3573       N  0.67840977  0.09897406  0.69776128    -0.39800
N3574       N  0.66198636  0.03653509  0.69235328    -0.37400
N3575       N  0.65568898  0.02745180  0.80603857    -0.38500
N3576       N  0.67943879  0.08787989  0.81114586    -0.40200
C3577       C  0.81380211  0.61837198  0.76447626    -0.05100
C3578       C  0.81432490  0.60598105  0.74486059     0.09100
C3579       C  0.80462713  0.61451957  0.72557906    -0.02500
C3580       C  0.79494868  0.63564031  0.72571542    -0.00700
C3581       C  0.79516991  0.64858869  0.74515842    -0.04400
C3582       C  0.80408209  0.63944341  0.76475628     0.02700
C3583       C  0.82582361  0.58419894  0.74451814     0.09500
C3584       C  0.80496296  0.60163256  0.70548529     0.35400
C3585       C  0.80376096  0.65170633  0.78526137     0.38800
C3586       C  0.81376697  0.56440412  0.74638462    -0.04700
C3587       C  0.82489242  0.54403486  0.74780595     0.02400
C3588       C  0.84810778  0.54346838  0.74790966    -0.04300
C3589       C  0.86012645  0.56329817  0.74546014    -0.00600
C3590       C  0.84899585  0.58350693  0.74340748    -0.03100
C3591       C  0.78993984  0.56513679  0.74745627     0.36100
C3592       C  0.88401494  0.56286684  0.74464436     0.39800
C3593       C  0.81249571  0.52377136  0.75002011     0.38900
C3594       C  0.86137523  0.60369274  0.74025943     0.35800
C3595       C  0.82377982  0.60953947  0.78433676     0.36500
C3596       C  0.78407460  0.64361002  0.70597258     0.39700
N3597       N  0.80257266  0.50760268  0.75173704    -0.38300
N3598       N  0.77092137  0.56583267  0.74831934    -0.39900
N3599       N  0.90305294  0.56244108  0.74402286    -0.37700
N3600       N  0.87122334  0.61979290  0.73766891    -0.40000
N3601       N  0.80525388  0.59130121  0.68948810    -0.39800
N3602       N  0.77530631  0.64989351  0.69024834    -0.37400
N3603       N  0.80333328  0.66132451  0.80170130    -0.38500
N3604       N  0.83188346  0.60252891  0.80010628    -0.40200
C3605       C  0.75133008  0.80372088  0.60650559    -0.05100
C3606       C  0.74648275  0.82602833  0.60221476     0.09100
C3607       C  0.74096667  0.84003253  0.61991422    -0.02500
C3608       C  0.73999877  0.83174890  0.64168542    -0.00700
C3609       C  0.74534271  0.80948179  0.64611581    -0.04400
C3610       C  0.75103284  0.79554283  0.62831010     0.02700
C3611       C  0.74662365  0.83462856  0.57895470     0.09500
C3612       C  0.73649318  0.86309811  0.61567720     0.35400
C3613       C  0.75570662  0.77246081  0.63223641     0.38800
C3614       C  0.72657499  0.83831789  0.56770780    -0.04700
C3615       C  0.72665260  0.84653134  0.54593359     0.02400
C3616       C  0.74672604  0.85198382  0.53556354    -0.04300
C3617       C  0.76673389  0.84635847  0.54595989    -0.00600
C3618       C  0.76673071  0.83832529  0.56781778    -0.03100
C3619       C  0.70584866  0.83360450  0.57856590     0.36100
C3620       C  0.78721597  0.84781605  0.53377128     0.39800
C3621       C  0.70610785  0.84878783  0.53392718     0.38900
C3622       C  0.78741909  0.83398474  0.57891864     0.35800
C3623       C  0.75622229  0.78904886  0.58833120     0.36500
C3624       C  0.73377030  0.84635590  0.65948550     0.39700
N3625       N  0.68977629  0.85051823  0.52424713    -0.38300
N3626       N  0.68932361  0.82993494  0.58730618    -0.39900
N3627       N  0.80352540  0.84884805  0.52397727    -0.37700
N3628       N  0.80391970  0.83050062  0.58779882    -0.40000
N3629       N  0.73297931  0.88149654  0.61224910    -0.39800
N3630       N  0.72859277  0.85812042  0.67352562    -0.37400
N3631       N  0.75941720  0.75405185  0.63538871    -0.38500
N3632       N  0.76010464  0.77738894  0.57379044    -0.40200
C3633       C  0.61404854  0.77166687  0.82153916    -0.05100
C3634       C  0.60056378  0.75372797  0.81538436     0.09100
C3635       C  0.60907696  0.73724754  0.80143737    -0.02500
C3636       C  0.63130831  0.73784132  0.79495093    -0.00700
C3637       C  0.64508430  0.75531796  0.80178977    -0.04400
C3638       C  0.63618251  0.77264097  0.81446153     0.02700
C3639       C  0.57799077  0.75108736  0.82496902     0.09500
C3640       C  0.59494942  0.71947996  0.79398052     0.35400
C3641       C  0.64995184  0.79105775  0.82087484     0.38800
C3642       C  0.56041402  0.76450018  0.81796298    -0.04700
C3643       C  0.53928943  0.76192017  0.82733735     0.02400
C3644       C  0.53534554  0.74528454  0.84337018    -0.04300
C3645       C  0.55304769  0.73158601  0.84991724    -0.00600
C3646       C  0.57425867  0.73476239  0.84105421    -0.03100
C3647       C  0.56415068  0.78110450  0.80118430     0.36100
C3648       C  0.54979467  0.71369056  0.86534199     0.39800
C3649       C  0.52213578  0.77747181  0.82145405     0.38900
C3650       C  0.59244334  0.72113931  0.84852984     0.35800
C3651       C  0.60528632  0.78880714  0.83562734     0.36500
C3652       C  0.63992586  0.72055004  0.78090649     0.39700
N3653       N  0.50849335  0.78991442  0.81676971    -0.38300
N3654       N  0.56716699  0.79439893  0.78786312    -0.39900
N3655       N  0.54832391  0.69917538  0.87758670    -0.37700
N3656       N  0.60695539  0.71026534  0.85436528    -0.40000
N3657       N  0.58369908  0.70529142  0.78806307    -0.39800
N3658       N  0.64687176  0.70677256  0.76975960    -0.37400
N3659       N  0.66088226  0.80581642  0.82594082    -0.38500
N3660       N  0.59820819  0.80250658  0.84678608    -0.40200
C3661       C  0.69292282  0.88966069  0.73798249    -0.05100
C3662       C  0.67211128  0.89420524  0.74717668     0.09100
C3663       C  0.65944936  0.87695882  0.75618285    -0.02500
C3664       C  0.66708224  0.85508386  0.75509064    -0.00700
C3665       C  0.68790432  0.85038248  0.74565940    -0.04400
C3666       C  0.70099306  0.86790476  0.73759128     0.02700
C3667       C  0.66296178  0.91703818  0.74637648     0.09500
C3668       C  0.63848443  0.88180626  0.76654552     0.35400
C3669       C  0.72318146  0.86375811  0.72980661     0.38800
C3670       C  0.64760387  0.92266678  0.72995303    -0.04700
C3671       C  0.63840663  0.94396904  0.72924336     0.02400
C3672       C  0.64513993  0.96025843  0.74460860    -0.04300
C3673       C  0.66029814  0.95421659  0.76143136    -0.00600
C3674       C  0.66905988  0.93272033  0.76228425    -0.03100
C3675       C  0.64104635  0.90623311  0.71387324     0.36100
C3676       C  0.66582163  0.96947922  0.77893144     0.39800
C3677       C  0.62145953  0.94829262  0.71304136     0.38900
C3678       C  0.68387773  0.92644447  0.77996542     0.35800
C3679       C  0.70595964  0.90743513  0.72879871     0.36500
C3680       C  0.65308009  0.83742158  0.76306269     0.39700
N3681       N  0.60758855  0.95043214  0.70014670    -0.38300
N3682       N  0.63584279  0.89305059  0.70114944    -0.39900
N3683       N  0.67037569  0.98144350  0.79302676    -0.37700
N3684       N  0.69560412  0.92139565  0.79412468    -0.40000
N3685       N  0.62181991  0.88571211  0.77489472    -0.39800
N3686       N  0.64186912  0.82336740  0.76938995    -0.37400
N3687       N  0.74095312  0.86042728  0.72381857    -0.38500
N3688       N  0.71631404  0.92164407  0.72145608    -0.40200
C3689       C  0.74695243  0.66302988  0.87056657    -0.05100
C3690       C  0.74501386  0.67840777  0.88791035     0.09100
C3691       C  0.74136680  0.70080819  0.88288579    -0.02500
C3692       C  0.73927056  0.70772141  0.86077032    -0.00700
C3693       C  0.74113103  0.69234131  0.84339366    -0.04400
C3694       C  0.74517682  0.66997181  0.84841472     0.02700
C3695       C  0.74650468  0.67089730  0.91148152     0.09500
C3696       C  0.74017677  0.71684125  0.90052708     0.35400
C3697       C  0.74711616  0.65396368  0.83080756     0.38800
C3698       C  0.76682939  0.66422518  0.92051970    -0.04700
C3699       C  0.76787654  0.65513237  0.94199350     0.02400
C3700       C  0.74844075  0.65299388  0.95491688    -0.04300
C3701       C  0.72875566  0.66274137  0.94669326    -0.00600
C3702       C  0.72756266  0.67053092  0.92483150    -0.03100
C3703       C  0.78673305  0.66664109  0.90750901     0.36100
C3704       C  0.70974846  0.66568603  0.96087678     0.39800
C3705       C  0.78918571  0.64837122  0.95024566     0.38900
C3706       C  0.70659561  0.67770432  0.91586088     0.35800
C3707       C  0.75074686  0.63999339  0.87556184     0.36500
C3708       C  0.73617152  0.73089334  0.85590534     0.39700
N3709       N  0.80662267  0.64357778  0.95627711    -0.38300
N3710       N  0.80257247  0.66861460  0.89710978    -0.39900
N3711       N  0.69449251  0.66807395  0.97202678    -0.37700
N3712       N  0.68988924  0.68339648  0.90867366    -0.40000
N3713       N  0.73917157  0.72960731  0.91461756    -0.39800
N3714       N  0.73375152  0.74937774  0.85201937    -0.37400
N3715       N  0.74870311  0.64118378  0.81677937    -0.38500
N3716       N  0.75391306  0.62165585  0.87960617    -0.40200
C3717       C  0.91896780  0.72321409  0.66007951    -0.05100
C3718       C  0.90814353  0.74183215  0.66863205     0.09100
C3719       C  0.91986075  0.76164470  0.67100876    -0.02500
C3720       C  0.94125054  0.76365571  0.66226157    -0.00700
C3721       C  0.95094888  0.74600307  0.65037944    -0.04400
C3722       C  0.94054912  0.72510839  0.65145217     0.02700
C3723       C  0.88430452  0.74086487  0.67490219     0.09500
C3724       C  0.90966421  0.78014113  0.68212910     0.35400
C3725       C  0.95184567  0.70536960  0.64448578     0.38800
C3726       C  0.87812227  0.73609162  0.69675188    -0.04700
C3727       C  0.85574392  0.73675308  0.70295832     0.02400
C3728       C  0.83932477  0.74227128  0.68730516    -0.04300
C3729       C  0.84553852  0.74666637  0.66530639    -0.00600
C3730       C  0.86795344  0.74596467  0.65914969    -0.03100
C3731       C  0.89492217  0.73092763  0.71293439     0.36100
C3732       C  0.82884642  0.75139572  0.64887027     0.39800
C3733       C  0.84978327  0.73259965  0.72572986     0.38900
C3734       C  0.87430206  0.75071140  0.63661236     0.35800
C3735       C  0.90769501  0.70217440  0.66001179     0.36500
C3736       C  0.95322451  0.78400930  0.66573560     0.39700
N3737       N  0.84508683  0.72927549  0.74390176    -0.38300
N3738       N  0.90836508  0.72684452  0.72581864    -0.39900
N3739       N  0.81552978  0.75509761  0.63573678    -0.37700
N3740       N  0.87942893  0.75448439  0.61864589    -0.40000
N3741       N  0.90157047  0.79484621  0.69109745    -0.39800
N3742       N  0.96237263  0.80046537  0.66854750    -0.37400
N3743       N  0.96059057  0.68915558  0.63968464    -0.38500
N3744       N  0.89864587  0.68541399  0.66009590    -0.40200
loop_ 
_geom_bond_atom_site_label_1 
_geom_bond_atom_site_label_2 
_geom_bond_distance 
_geom_bond_site_symmetry_2 
_ccdc_geom_bond_type 
O1           Mg3   2.141       .  S
O1           Mg9   2.149       .  S
O1           C36   1.238       .  S
C2           O15   1.239       .  S
C2           O39   1.273       .  A
C2           H41   1.082       .  S
Mg3          O32   2.149       .  S
Mg3          O47   2.327       .  S
Mg3          O43   2.285       .  S
Mg3          O14   2.302       .  S
O4          Mg46   2.138       .  S
O4          Mg29   2.134       .  S
O4           C25   1.237       .  S
O5           C36   1.272       .  A
O5          Mg29   2.300       .  S
C6            O8   1.273       .  A
C6           O20   1.274       .  A
C6         C3581   1.497       .  S
O7           C35   1.271       .  A
O7           Mg9   2.300       .  S
O8          Mg40   2.272       .  S
Mg9          O15   2.149       .  S
Mg9          O23   2.288       .  S
Mg9          O11   2.323       .  S
C10          O48   1.272       .  A
C10          O16   1.278       .  A
C10        C3693   1.490       .  S
O11          C18   1.278       .  A
H12          C25   1.083       .  S
C13          O27   1.239       .  S
C13          O28   1.272       .  A
C13          H38   1.081       .  S
O14          C37   1.272       .  A
O15         Mg29   2.149       .  S
O16         Mg46   2.328       .  S
C17          O30   1.272       .  A
C17          O22   1.274       .  A
C17        C3637   1.483       .  S
C18          O45   1.270       .  A
C18        C3665   1.490       .  S
Mg19         O26   2.136       .  S
Mg19         O27   2.139       .  S
Mg19         O20   2.302       .  S
Mg19         O21   2.299       .  S
Mg19         O48   2.263       .  S
O21          C25   1.270       .  A
O22         Mg29   2.307       .  S
O23          C42   1.276       .  A
O24          C44   1.275       .  A
O24         Mg40   2.300       .  S
O26         Mg40   2.141       .  S
O26          C37   1.238       .  S
O27         Mg46   2.127       .  S
O28         Mg40   2.300       .  S
Mg29         O45   2.245       .  S
O30         Mg46   2.256       .  S
H31          C36   1.082       .  S
O32         Mg40   2.144       .  S
O32          C35   1.237       .  S
H33          C35   1.082       .  S
H34          C37   1.082       .  S
O39         Mg46   2.308       .  S
C42          O47   1.279       .  A
C42        C3609   1.498       .  S
O43          C44   1.275       .  A
C44        C3728   1.489       .  S
C49          C50   1.542       .  S
C49          C55   1.539       .  S
C49          C53   1.536       .  S
C49        C3553   1.557       .  S
C50          H57   1.083       .  S
C50          C51   1.369       .  D
C51          C52   1.545   1_545  S
C51        C3497   1.507   1_545  S
C52          C56   1.543   1_565  S
C52          C54   1.546       .  S
C52          H58   1.108       .  S
C53          H59   1.086       .  S
C53          C54   1.372   1_545  D
C54        C3672   1.505       .  S
C55          H60   1.084       .  S
C55          C56   1.361       .  D
C56        C3525   1.490       .  S
O61         Mg63   2.142       .  S
O61         Mg69   2.142       .  S
O61          C96   1.238       .  S
C62          O75   1.238       .  S
C62          O99   1.272       .  A
C62         H101   1.081       .  S
Mg63         O92   2.139       .  S
Mg63        O107   2.312       .  S
Mg63        O103   2.271       .  S
Mg63         O74   2.306       .  S
O64        Mg106   2.145       .  S
O64         Mg89   2.134       .  S
O64          C85   1.237       .  S
O65          C96   1.272       .  A
O65         Mg89   2.304       .  S
C66          O68   1.272       .  A
C66          O80   1.278       .  A
C66        C3560   1.495       .  S
O67          C95   1.272       .  A
O67         Mg69   2.305       .  S
O68        Mg100   2.259       .  S
Mg69         O75   2.132       .  S
Mg69         O83   2.260       .  S
Mg69         O71   2.314       .  S
C70         O108   1.274       .  A
C70          O76   1.276       .  A
C70        C3392   1.491       .  S
O71          C78   1.276       .  A
H72          C85   1.082       .  S
C73          O87   1.237       .  S
C73          O88   1.271       .  A
C73          H98   1.081       .  S
O74          C97   1.272       .  A
O75         Mg89   2.140       .  S
O76        Mg106   2.314       .  S
C77          O90   1.273       .  A
C77          O82   1.275       .  A
C77        C3420   1.486       .  S
C78         O105   1.272       .  A
C78        C3357   1.495       .  S
Mg79         O86   2.143       .  S
Mg79         O87   2.145       .  S
Mg79         O80   2.327       .  S
Mg79         O81   2.299       .  S
Mg79        O108   2.269       .  S
O81          C85   1.271       .  A
O82         Mg89   2.304       .  S
O83         C102   1.272       .  A
O84         C104   1.276       .  A
O84        Mg100   2.318       .  S
O86        Mg100   2.142       .  S
O86          C97   1.238       .  S
O87        Mg106   2.142       .  S
O88        Mg100   2.301       .  S
Mg89        O105   2.267       .  S
O90        Mg106   2.270       .  S
H91          C96   1.082       .  S
O92        Mg100   2.137       .  S
O92          C95   1.238       .  S
H93          C95   1.082       .  S
H94          C97   1.081       .  S
O99        Mg106   2.301       .  S
C102        O107   1.276       .  A
C102       C3441   1.495       .  S
O103        C104   1.273       .  A
C104       C3476   1.501       .  S
C109        C110   1.530       .  S
C109        C115   1.534       .  S
C109        C113   1.554       .  S
C109       C3336   1.564       .  S
C110        H117   1.086       .  S
C110        C111   1.365       .  D
C111        C112   1.546       .  S
C111       C3364   1.508       .  S
C112        C116   1.543       .  S
C112        C114   1.547       .  S
C112        H118   1.108       .  S
C113        H119   1.080       .  S
C113        C114   1.379       .  D
C114       C3301   1.511       .  S
C115        H120   1.087       .  S
C115        C116   1.359       .  D
C116       C3588   1.490       .  S
C121        C122   1.542       .  S
C121        C127   1.544       .  S
C121        C125   1.527       .  S
C121       C3273   1.556       .  S
C122        H129   1.084       .  S
C122        C123   1.372       .  D
C123        C124   1.552       .  S
C123       C3217   1.518       .  S
C124        C128   1.547       .  S
C124        C126   1.555       .  S
C124        H130   1.103       .  S
C125        H131   1.086       .  S
C125        C126   1.361       .  D
C126       C3616   1.492       .  S
C127        H132   1.080       .  S
C127        C128   1.369       .  D
C128       C3245   1.513       .  S
O133       Mg135   2.133       .  S
O133       Mg141   2.137       .  S
O133        C168   1.238       .  S
C134        O147   1.237       .  S
C134        O171   1.271       .  A
C134        H173   1.082       .  S
Mg135       O164   2.144       .  S
Mg135       O179   2.327       .  S
Mg135       O175   2.262       .  S
Mg135       O146   2.303       .  S
O136       Mg178   2.149       .  S
O136       Mg161   2.143       .  S
O136        C157   1.237       .  S
O137        C168   1.272       .  A
O137       Mg161   2.301       .  S
C138        O140   1.272       .  A
C138        O152   1.277       .  A
C138       C3189   1.494       .  S
O139        C167   1.272       .  A
O139       Mg141   2.302       .  S
O140       Mg172   2.258       .  S
Mg141       O147   2.136       .  S
Mg141       O155   2.261       .  S
Mg141       O143   2.313       .  S
C142        O180   1.273       .  A
C142        O148   1.276       .  A
C142       C3105   1.490       .  S
O143        C150   1.276       .  A
H144        C157   1.082       .  S
C145        O159   1.237       .  S
C145        O160   1.270       .  A
C145        H170   1.081       .  S
O146        C169   1.272       .  A
O147       Mg161   2.143       .  S
O148       Mg178   2.314       .  S
C149        O162   1.272       .  A
C149        O154   1.277       .  A
C149       C3280   1.489       .  S
C150        O177   1.273       .  A
C150       C3133   1.486       .  S
Mg151       O158   2.139       .  S
Mg151       O159   2.147       .  S
Mg151       O152   2.317       .  S
Mg151       O153   2.300       .  S
Mg151       O180   2.265       .  S
O153        C157   1.271       .  A
O154       Mg161   2.311       .  S
O155        C174   1.273       .  A
O156        C176   1.275       .  A
O156       Mg172   2.301       .  S
O158       Mg172   2.149       .  S
O158        C169   1.238       .  S
O159       Mg178   2.132       .  S
O160       Mg172   2.295       .  S
Mg161       O177   2.272       .  S
O162       Mg178   2.255       .  S
H163        C168   1.082       .  S
O164       Mg172   2.139       .  S
O164        C167   1.238       .  S
H165        C167   1.082       .  S
H166        C169   1.082       .  S
O171       Mg178   2.298       .  S
C174        O179   1.277       .  A
C174       C3161   1.497       .  S
O175        C176   1.272       .  A
C176       C3084   1.487       .  S
C181        C182   1.532   1_554  S
C181        C187   1.541       .  S
C181        C185   1.536       .  S
C181       C3049   1.557       .  S
C182        H189   1.086       .  S
C182        C183   1.371       .  D
C183        C184   1.550       .  S
C183       C3700   1.518       .  S
C184        C188   1.540   1_556  S
C184        C186   1.553       .  S
C184        H190   1.104       .  S
C185        H191   1.085       .  S
C185        C186   1.361   1_554  D
C186       C3021   1.487       .  S
C187        H192   1.083       .  S
C187        C188   1.367       .  D
C188       C3077   1.498       .  S
C193        C194   1.540       .  S
C193        C199   1.541       .  S
C193        C197   1.534       .  S
C193       C3140   1.554       .  S
C194        H201   1.083       .  S
C194        C195   1.365       .  D
C195        C196   1.548       .  S
C195       C2965   1.508       .  S
C196        C200   1.547       .  S
C196        C198   1.547       .  S
C196        H202   1.108       .  S
C197        H203   1.086       .  S
C197        C198   1.373       .  D
C198       C2937   1.506       .  S
C199        H204   1.085       .  S
C199        C200   1.364       .  D
C200       C2993   1.495       .  S
C205        C206   1.531       .  S
C205        C211   1.539       .  S
C205        C209   1.538   1_565  S
C205       C2825   1.561       .  S
C206        H213   1.086       .  S
C206        C207   1.368   1_565  D
C207        C208   1.554       .  S
C207       C2881   1.520       .  S
C208        C212   1.542       .  S
C208        C210   1.558       .  S
C208        H214   1.105       .  S
C209        H215   1.086       .  S
C209        C210   1.367       .  D
C210       C2853   1.492       .  S
C211        H216   1.080       .  S
C211        C212   1.364   1_565  D
C212       C2909   1.501       .  S
C217        C218   1.542       .  S
C217        C223   1.541       .  S
C217        C221   1.522       .  S
C217       C3469   1.553       .  S
C218        H225   1.081       .  S
C218        C219   1.374       .  D
C219        C220   1.560   1_556  S
C219       C2776   1.526       .  S
C220        C224   1.548   1_554  S
C220        C222   1.560       .  S
C220        H226   1.103       .  S
C221        H227   1.086       .  S
C221        C222   1.361   1_556  D
C222       C2748   1.497       .  S
C223        H228   1.084       .  S
C223        C224   1.366       .  D
C224       C2797   1.511       .  S
C229        C230   1.544       .  S
C229        C235   1.533       .  S
C229        C233   1.542       .  S
C229       C2629   1.563       .  S
C230        H237   1.085       .  S
C230        C231   1.369       .  D
C231        C232   1.539       .  S
C231       C2713   1.502       .  S
C232        C236   1.551       .  S
C232        C234   1.550       .  S
C232        H238   1.101       .  S
C233        H239   1.083       .  S
C233        C234   1.362       .  D
C234       C2657   1.492       .  S
C235        H240   1.085       .  S
C235        C236   1.374       .  D
C236       C2685   1.522       .  S
C241        C242   1.535       .  S
C241        C247   1.538       .  S
C241        C245   1.534       .  S
C241       C2573   1.549       .  S
C242        H249   1.085       .  S
C242        C243   1.360       .  D
C243        C244   1.545       .  S
C243       C3413   1.486       .  S
C244        C248   1.546       .  S
C244        C246   1.545       .  S
C244        H250   1.109       .  S
C245        H251   1.086       .  S
C245        C246   1.373       .  D
C246       C2601   1.503       .  S
C247        H252   1.083       .  S
C247        C248   1.365       .  D
C248       C2545   1.500       .  S
C253        C254   1.539       .  S
C253        C259   1.540       .  S
C253        C257   1.534       .  S
C253       C2489   1.553       .  S
C254        H261   1.083       .  S
C254        C255   1.365       .  D
C255        C256   1.545       .  S
C255       C3168   1.492       .  S
C256        C260   1.543       .  S
C256        C258   1.545       .  S
C256        H262   1.109       .  S
C257        H263   1.086       .  S
C257        C258   1.371       .  D
C258       C2461   1.504       .  S
C259        H264   1.085       .  S
C259        C260   1.363       .  D
C260       C2517   1.498       .  S
C265        C266   1.540       .  S
C265        C271   1.540       .  S
C265        C269   1.524       .  S
C265       C2377   1.551       .  S
C266        H273   1.081       .  S
C266        C267   1.367       .  D
C267        C268   1.545       .  S
C267       C2349   1.508       .  S
C268        C272   1.554       .  S
C268        C270   1.554       .  S
C268        H274   1.101       .  S
C269        H275   1.086       .  S
C269        C270   1.361       .  D
C270       C2405   1.490       .  S
C271        H276   1.083       .  S
C271        C272   1.372       .  D
C272       C2440   1.522       .  S
C277        C278   1.536   1_455  S
C277        C283   1.539       .  S
C277        C281   1.538       .  S
C277       C2293   1.553   1_455  S
C278        H285   1.084       .  S
C278        C279   1.366       .  D
C279        C280   1.547   1_655  S
C279       C3196   1.503       .  S
C280        C284   1.547       .  S
C280        C282   1.547       .  S
C280        H286   1.108       .  S
C281        H287   1.086       .  S
C281        C282   1.374       .  D
C282       C2321   1.507       .  S
C283        H288   1.083       .  S
C283        C284   1.359       .  D
C284       C2272   1.493       .  S
O289       Mg291   2.131       .  S
O289       Mg297   2.141       .  S
O289        C324   1.238       .  S
C290        O303   1.238       .  S
C290        O327   1.273       .  A
C290        H329   1.081       .  S
Mg291       O320   2.143       .  S
Mg291       O335   2.336       .  S
Mg291       O331   2.245       .  S
Mg291       O302   2.300       .  S
O292       Mg334   2.140       .  S
O292       Mg317   2.143       .  S
O292        C313   1.239       .  S
O293        C324   1.271       .  A
O293       Mg317   2.299       .  S
C294        O296   1.274       .  A
C294        O308   1.276       .  A
C294       C2216   1.484       .  S
O295        C323   1.271       .  A
O295       Mg297   2.297       .  S
O296       Mg328   2.280       .  S
Mg297       O303   2.149       .  S
Mg297       O311   2.270       .  S
Mg297       O299   2.297       .  S
C298        O336   1.273       .  A
C298        O304   1.278       .  A
C298       C2181   1.492       .  S
O299        C306   1.274       .  A
H300        C313   1.083       .  S
C301        O315   1.239       .  S
C301        O316   1.273       .  A
C301        H326   1.081       .  S
O302        C325   1.272       .  A
O303       Mg317   2.150       .  S
O304       Mg334   2.329       .  S
C305        O318   1.275       .  A
C305        O310   1.277       .  A
C305       C2265   1.503       .  S
C306        O333   1.273       .  A
C306       C2237   1.487       .  S
Mg307       O314   2.141       .  S
Mg307       O315   2.142       .  S
Mg307       O308   2.321       .  S
Mg307       O309   2.308       .  S
Mg307       O336   2.269       .  S
O309        C313   1.273       .  A
O310       Mg317   2.324       .  S
O311        C330   1.273       .  A
O312        C332   1.280       .  A
O312       Mg328   2.335       .  S
O314       Mg328   2.143       .  S
O314        C325   1.238       .  S
O315       Mg334   2.145       .  S
O316       Mg328   2.306       .  S
Mg317       O333   2.265       .  S
O318       Mg334   2.282       .  S
H319        C324   1.081       .  S
O320       Mg328   2.141       .  S
O320        C323   1.237       .  S
H321        C323   1.083       .  S
H322        C325   1.081       .  S
O327       Mg334   2.307       .  S
C330        O335   1.278       .  A
C330       C2433   1.492       .  S
O331        C332   1.272       .  A
C332       C2944   1.492       .  S
C337        C338   1.541       .  S
C337        C343   1.545       .  S
C337        C341   1.526       .  S
C337       C2104   1.554       .  S
C338        H345   1.082       .  S
C338        C339   1.367       .  D
C339        C340   1.544   1_556  S
C339       C2125   1.512       .  S
C340        C344   1.549   1_554  S
C340        C342   1.555       .  S
C340        H346   1.101       .  S
C341        H347   1.086       .  S
C341        C342   1.362   1_556  D
C342       C2188   1.490       .  S
C343        H348   1.083       .  S
C343        C344   1.374       .  D
C344       C2153   1.520       .  S
C349        C350   1.539       .  S
C349        C355   1.538       .  S
C349        C353   1.536       .  S
C349       C2069   1.555       .  S
C350        H357   1.084       .  S
C350        C351   1.367       .  D
C351        C352   1.551       .  S
C351       C2048   1.509       .  S
C352        C356   1.546       .  S
C352        C354   1.547       .  S
C352        H358   1.109       .  S
C353        H359   1.086       .  S
C353        C354   1.373       .  D
C354       C3385   1.505       .  S
C355        H360   1.084       .  S
C355        C356   1.362       .  D
C356       C2013   1.494       .  S
O361       Mg363   2.139       .  S
O361       Mg369   2.146       .  S
O361        C396   1.237       .  S
C362        O375   1.238       .  S
C362        O399   1.272       .  A
C362        H401   1.082       .  S
Mg363       O392   2.146       .  S
Mg363       O407   2.302       .  S
Mg363       O403   2.258       .  S
Mg363       O374   2.298       .  S
O364       Mg406   2.141       .  S
O364       Mg389   2.136       .  S
O364        C385   1.238       .  S
O365        C396   1.271       .  A
O365       Mg389   2.300       .  S
C366        O368   1.275       .  A
C366        O380   1.276       .  A
C366       C2860   1.497       .  S
O367        C395   1.273       .  A
O367       Mg369   2.306       .  S
O368       Mg400   2.277       .  S
Mg369       O375   2.133       .  S
Mg369       O383   2.269       .  S
Mg369       O371   2.342       .  S
C370        O408   1.273       .  A
C370        O376   1.272       .  A
C370       C1992   1.488       .  S
O371        C378   1.280       .  A
H372        C385   1.082       .  S
C373        O387   1.237       .  S
C373        O388   1.270       .  A
C373        H398   1.082       .  S
O374        C397   1.271       .  A
O375       Mg389   2.142       .  S
O376       Mg406   2.287       .  S
C377        O390   1.269       .  A
C377        O382   1.276       .  A
C377       C2076   1.482       .  S
C378        O405   1.273       .  A
C378       C2664   1.494       .  S
Mg379       O386   2.129       .  S
Mg379       O387   2.145       .  S
Mg379       O380   2.311       .  S
Mg379       O381   2.302       .  S
Mg379       O408   2.264       .  S
O381        C385   1.272       .  A
O382       Mg389   2.314       .  S
O383        C402   1.274       .  A
O384        C404   1.276       .  A
O384       Mg400   2.310       .  S
O386       Mg400   2.149       .  S
O386        C397   1.238       .  S
O387       Mg406   2.130       .  S
O388       Mg400   2.296       .  S
Mg389       O405   2.258       .  S
O390       Mg406   2.246       .  S
H391        C396   1.082       .  S
O392       Mg400   2.148       .  S
O392        C395   1.238       .  S
H393        C395   1.081       .  S
H394        C397   1.081       .  S
O399       Mg406   2.298       .  S
C402        O407   1.275       .  A
C402       C1957   1.494       .  S
O403        C404   1.272       .  A
C404       C1936   1.490       .  S
C409        C410   1.537       .  S
C409        C415   1.541       .  S
C409        C413   1.536       .  S
C409       C3448   1.553       .  S
C410        H417   1.084       .  S
C410        C411   1.364       .  D
C411        C412   1.544   1_655  S
C411       C1873   1.488       .  S
C412        C416   1.538   1_455  S
C412        C414   1.547       .  S
C412        H418   1.107       .  S
C413        H419   1.085       .  S
C413        C414   1.375   1_655  D
C414       C1929   1.513       .  S
C415        H420   1.084       .  S
C415        C416   1.362       .  D
C416       C1901   1.496       .  S
O421       Mg423   2.142       .  S
O421       Mg429   2.139       .  S
O421        C456   1.237       .  S
C422        O435   1.237       .  S
C422        O459   1.271       .  A
C422        H461   1.081       .  S
Mg423       O452   2.144       .  S
Mg423       O467   2.349       .  S
Mg423       O463   2.269       .  S
Mg423       O434   2.307       .  S
O424       Mg466   2.152       .  S
O424       Mg449   2.139       .  S
O424        C445   1.237       .  S
O425        C456   1.272       .  A
O425       Mg449   2.303       .  S
C426        O428   1.274       .  A
C426        O440   1.276       .  A
C426       C2524   1.486       .  S
O427        C455   1.273       .  A
O427       Mg429   2.307       .  S
O428       Mg460   2.275       .  S
Mg429       O435   2.144       .  S
Mg429       O443   2.266       .  S
Mg429       O431   2.328       .  S
C430        O468   1.275       .  A
C430        O436   1.275       .  A
C430       C2552   1.496       .  S
O431        C438   1.278       .  A
H432        C445   1.082       .  S
C433        O447   1.238       .  S
C433        O448   1.272       .  A
C433        H458   1.081       .  S
O434        C457   1.272       .  A
O435       Mg449   2.148       .  S
O436       Mg466   2.305       .  S
C437        O450   1.272       .  A
C437        O442   1.277       .  A
C437       C1824   1.489       .  S
C438        O465   1.273       .  A
C438       C1796   1.502       .  S
Mg439       O446   2.150       .  S
Mg439       O447   2.153       .  S
Mg439       O440   2.313       .  S
Mg439       O441   2.297       .  S
Mg439       O468   2.285       .  S
O441        C445   1.271       .  A
O442       Mg449   2.320       .  S
O443        C462   1.273       .  A
O444        C464   1.278       .  A
O444       Mg460   2.327       .  S
O446       Mg460   2.149       .  S
O446        C457   1.238       .  S
O447       Mg466   2.139       .  S
O448       Mg460   2.300       .  S
Mg449       O465   2.268       .  S
O450       Mg466   2.262       .  S
H451        C456   1.082       .  S
O452       Mg460   2.155       .  S
O452        C455   1.238       .  S
H453        C455   1.082       .  S
H454        C457   1.081       .  S
O459       Mg466   2.297       .  S
C462        O467   1.280       .  A
C462       C2741   1.499       .  S
O463        C464   1.275       .  A
C464       C1845   1.494       .  S
C469        C470   1.531   1_545  S
C469        C475   1.541       .  S
C469        C473   1.542       .  S
C469       C1761   1.551       .  S
C470        H477   1.085       .  S
C470        C471   1.354       .  D
C471        C472   1.557   1_565  S
C471       C3112   1.494       .  S
C472        C476   1.541       .  S
C472        C474   1.547       .  S
C472        H478   1.103       .  S
C473        H479   1.083   1_545  S
C473        C474   1.380       .  D
C474       C1740   1.525   1_545  S
C475        H480   1.084       .  S
C475        C476   1.365       .  D
C476       C1789   1.500       .  S
C481        C482   1.535       .  S
C481        C487   1.536       .  S
C481        C485   1.532   1_455  S
C481       C1705   1.548       .  S
C482        H489   1.083       .  S
C482        C483   1.363   1_455  D
C483        C484   1.548       .  S
C483       C1684   1.503       .  S
C484        C488   1.548       .  S
C484        C486   1.554       .  S
C484        H490   1.107       .  S
C485        H491   1.086       .  S
C485        C486   1.374       .  D
C486       C1817   1.514       .  S
C487        H492   1.085       .  S
C487        C488   1.360   1_455  D
C488       C1649   1.492       .  S
O493       Mg495   2.134       .  S
O493       Mg501   2.141       .  S
O493        C528   1.236       .  S
C494        O507   1.238       .  S
C494        O531   1.272       .  A
C494        H533   1.082       .  S
Mg495       O524   2.147       .  S
Mg495       O539   2.315       .  S
Mg495       O535   2.268       .  S
Mg495       O506   2.301       .  S
O496       Mg538   2.152       .  S
O496       Mg521   2.140       .  S
O496        C517   1.238       .  S
O497        C528   1.270       .  A
O497       Mg521   2.295       .  S
C498        O500   1.273       .  A
C498        O512   1.276       .  A
C498       C1509   1.490       .  S
O499        C527   1.272       .  A
O499       Mg501   2.301       .  S
O500       Mg532   2.281       .  S
Mg501       O507   2.142       .  S
Mg501       O515   2.273       .  S
Mg501       O503   2.313       .  S
C502        O540   1.270       .  A
C502        O508   1.276       .  A
C502       C1712   1.489       .  S
O503        C510   1.277       .  A
H504        C517   1.082       .  S
C505        O519   1.238       .  S
C505        O520   1.273       .  A
C505        H530   1.082       .  S
O506        C529   1.272       .  A
O507       Mg521   2.150       .  S
O508       Mg538   2.315       .  S
C509        O522   1.274       .  A
C509        O514   1.274       .  A
C509       C1544   1.497       .  S
C510        O537   1.274       .  A
C510       C1600   1.504       .  S
Mg511       O518   2.126       .  S
Mg511       O519   2.139       .  S
Mg511       O512   2.318       .  S
Mg511       O513   2.307       .  S
Mg511       O540   2.247       .  S
O513        C517   1.273       .  A
O514       Mg521   2.292       .  S
O515        C534   1.273       .  A
O516        C536   1.276       .  A
O516       Mg532   2.304       .  S
O518       Mg532   2.136       .  S
O518        C529   1.238       .  S
O519       Mg538   2.148       .  S
O520       Mg532   2.307       .  S
Mg521       O537   2.279       .  S
O522       Mg538   2.281       .  S
H523        C528   1.082       .  S
O524       Mg532   2.140       .  S
O524        C527   1.238       .  S
H525        C527   1.083       .  S
H526        C529   1.081       .  S
O531       Mg538   2.301       .  S
C534        O539   1.277       .  A
C534       C1572   1.487       .  S
O535        C536   1.273       .  A
C536       C1628   1.486       .  S
C541        C542   1.539   1_554  S
C541        C547   1.541       .  S
C541        C545   1.532       .  S
C541       C1481   1.550       .  S
C542        H549   1.083       .  S
C542        C543   1.364       .  D
C543        C544   1.542   1_556  S
C543       C1964   1.499       .  S
C544        C548   1.541       .  S
C544        C546   1.545       .  S
C544        H550   1.109       .  S
C545        H551   1.086       .  S
C545        C546   1.370       .  D
C546       C1460   1.499       .  S
C547        H552   1.085       .  S
C547        C548   1.366       .  D
C548       C1621   1.490       .  S
C553        C554   1.531       .  S
C553        C559   1.546   1_545  S
C553        C557   1.540       .  S
C553       C1397   1.557       .  S
C554        H561   1.086       .  S
C554        C555   1.370       .  D
C555        C556   1.549       .  S
C555       C1593   1.514       .  S
C556        C560   1.546   1_545  S
C556        C558   1.551       .  S
C556        H562   1.103       .  S
C557        H563   1.085   1_545  S
C557        C558   1.360       .  D
C558       C1425   1.489       .  S
C559        H564   1.085       .  S
C559        C560   1.372       .  D
C560       C2209   1.511       .  S
O565       Mg567   2.144   1_455  S
O565       Mg573   2.146       .  S
O565        C600   1.239       .  S
C566        O579   1.239       .  S
C566        O603   1.273   1_455  A
C566        H605   1.081       .  S
Mg567       O596   2.151       .  S
Mg567       O611   2.311   1_655  S
Mg567       O607   2.256       .  S
Mg567       O578   2.296   1_545  S
O568       Mg610   2.148   1_455  S
O568       Mg593   2.152   1_565  S
O568        C589   1.239       .  S
O569        C600   1.273       .  A
O569       Mg593   2.306       .  S
C570        O572   1.275       .  A
C570        O584   1.276       .  A
C570       C3224   1.502       .  S
O571        C599   1.272       .  A
O571       Mg573   2.301   1_655  S
O572       Mg604   2.290   1_565  S
Mg573       O579   2.138       .  S
Mg573       O587   2.269       .  S
Mg573       O575   2.321       .  S
C574        O612   1.270       .  A
C574        O580   1.280       .  A
C574       C1341   1.492       .  S
O575        C582   1.277       .  A
H576        C589   1.081       .  S
C577        O591   1.238       .  S
C577        O592   1.271   1_565  A
C577        H602   1.081       .  S
O578        C601   1.271       .  A
O579       Mg593   2.142       .  S
O580       Mg610   2.344       .  S
C581        O594   1.275       .  A
C581        O586   1.279   1_565  A
C581       C2888   1.493       .  S
C582        O609   1.276       .  A
C582       C1369   1.499       .  S
Mg583       O590   2.125       .  S
Mg583       O591   2.136       .  S
Mg583       O584   2.317       .  S
Mg583       O585   2.307   1_655  S
Mg583       O612   2.241       .  S
O585        C589   1.273       .  A
O586       Mg593   2.328       .  S
O587        C606   1.273       .  A
O588        C608   1.276       .  A
O588       Mg604   2.310       .  S
O590       Mg604   2.144   1_565  S
O590        C601   1.238       .  S
O591       Mg610   2.143       .  S
O592       Mg604   2.299       .  S
Mg593       O609   2.294       .  S
O594       Mg610   2.274   1_455  S
H595        C600   1.082       .  S
O596       Mg604   2.145       .  S
O596        C599   1.238       .  S
H597        C599   1.081       .  S
H598        C601   1.081       .  S
O603       Mg610   2.304   1_545  S
C606        O611   1.275       .  A
C606       C1677   1.488       .  S
O607        C608   1.272       .  A
C608       C1768   1.485       .  S
O613       Mg615   2.141       .  S
O613       Mg621   2.144   1_556  S
O613        C648   1.239       .  S
C614        O627   1.239   1_545  S
C614        O651   1.275   1_455  A
C614        H653   1.082       .  S
Mg615       O644   2.149   1_565  S
Mg615       O659   2.329       .  S
Mg615       O655   2.284       .  S
Mg615       O626   2.297       .  S
O616       Mg658   2.130   1_565  S
O616       Mg641   2.142       .  S
O616        C637   1.236       .  S
O617        C648   1.273   1_654  A
O617       Mg641   2.306       .  S
C618        O620   1.270   1_655  A
C618        O632   1.276       .  A
C618       C1908   1.481       .  S
O619        C647   1.270       .  A
O619       Mg621   2.295   1_545  S
O620       Mg652   2.253       .  S
Mg621       O627   2.163       .  S
Mg621       O635   2.291       .  S
Mg621       O623   2.314       .  S
C622        O660   1.274   1_554  A
C622        O628   1.279       .  A
C622       C2804   1.494       .  S
O623        C630   1.277       .  A
H624        C637   1.083   1_556  S
C625        O639   1.239       .  S
C625        O640   1.272   1_655  A
C625        H650   1.080       .  S
O626        C649   1.271   1_465  A
O627       Mg641   2.146   1_455  S
O628       Mg658   2.335       .  S
C629        O642   1.271   1_565  A
C629        O634   1.278       .  A
C629       C1733   1.502       .  S
C630        O657   1.272   1_455  A
C630       C2328   1.488       .  S
Mg631       O638   2.138       .  S
Mg631       O639   2.148   1_556  S
Mg631       O632   2.312       .  S
Mg631       O633   2.303       .  S
Mg631       O660   2.276       .  S
O633        C637   1.271   1_546  A
O634       Mg641   2.333       .  S
O635        C654   1.276       .  A
O636        C656   1.274       .  A
O636       Mg652   2.287       .  S
O638       Mg652   2.153   1_655  S
O638        C649   1.238       .  S
O639       Mg658   2.131       .  S
O640       Mg652   2.294   1_554  S
Mg641       O657   2.256       .  S
O642       Mg658   2.259       .  S
H643        C648   1.082       .  S
O644       Mg652   2.131       .  S
O644        C647   1.236   1_556  S
H645        C647   1.083       .  S
H646        C649   1.081       .  S
O651       Mg658   2.318       .  S
C654        O659   1.279   1_554  A
C654       C2160   1.493       .  S
O655        C656   1.275   1_565  A
C656       C2916   1.494       .  S
O661       Mg663   2.151       .  S
O661       Mg669   2.136       .  S
O661        C696   1.238       .  S
C662        O675   1.239       .  S
C662        O699   1.273   1_545  A
C662        H701   1.081       .  S
Mg663       O692   2.142   1_545  S
Mg663       O707   2.327       .  S
Mg663       O703   2.264       .  S
Mg663       O674   2.304       .  S
O664       Mg706   2.147   1_545  S
O664       Mg689   2.154       .  S
O664        C685   1.238       .  S
O665        C696   1.273       .  A
O665       Mg689   2.309       .  S
C666        O668   1.275       .  A
C666        O680   1.281       .  A
C666       C3000   1.500       .  S
O667        C695   1.273       .  A
O667       Mg669   2.312   1_565  S
O668       Mg700   2.276       .  S
Mg669       O675   2.134       .  S
Mg669       O683   2.258       .  S
Mg669       O671   2.335       .  S
C670        O708   1.276       .  A
C670        O676   1.277       .  A
C670       C3252   1.505       .  S
O671        C678   1.278       .  A
H672        C685   1.082       .  S
C673        O687   1.237       .  S
C673        O688   1.271       .  A
C673        H698   1.082       .  S
O674        C697   1.273   1_545  A
O675       Mg689   2.139       .  S
O676       Mg706   2.319       .  S
C677        O690   1.273   1_545  A
C677        O682   1.278       .  A
C677       C3532   1.495       .  S
C678        O705   1.275       .  A
C678       C2041   1.498       .  S
Mg679       O686   2.144       .  S
Mg679       O687   2.147       .  S
Mg679       O680   2.343       .  S
Mg679       O681   2.304       .  S
Mg679       O708   2.284       .  S
O681        C685   1.273   1_565  A
O682       Mg689   2.326       .  S
O683        C702   1.272       .  A
O684        C704   1.277       .  A
O684       Mg700   2.324       .  S
O686       Mg700   2.146       .  S
O686        C697   1.238       .  S
O687       Mg706   2.137       .  S
O688       Mg700   2.296       .  S
Mg689       O705   2.289       .  S
O690       Mg706   2.260       .  S
H691        C696   1.082       .  S
O692       Mg700   2.153       .  S
O692        C695   1.238       .  S
H693        C695   1.082       .  S
H694        C697   1.081       .  S
O699       Mg706   2.302       .  S
C702        O707   1.277       .  A
C702       C1313   1.501       .  S
O703        C704   1.272   1_545  A
C704       C1432   1.490       .  S
C709        C710   1.528       .  S
C709        C715   1.525       .  S
C709        C713   1.554       .  S
C709       C1985   1.555       .  S
C710        H717   1.086       .  S
C710        C711   1.364       .  D
C711        C712   1.552       .  S
C711       C1320   1.515       .  S
C712        C716   1.562       .  S
C712        C714   1.542       .  S
C712        H718   1.104       .  S
C713        H719   1.077       .  S
C713        C714   1.375       .  D
C714       C1537   1.512       .  S
C715        H720   1.087       .  S
C715        C716   1.357       .  D
C716       C1376   1.497       .  S
O721       Mg723   2.131       .  S
O721       Mg729   2.141       .  S
O721        C756   1.237       .  S
C722        O735   1.238       .  S
C722        O759   1.273       .  A
C722        H761   1.082       .  S
Mg723       O752   2.142       .  S
Mg723       O767   2.327       .  S
Mg723       O763   2.257       .  S
Mg723       O734   2.308   1_565  S
O724       Mg766   2.141       .  S
O724       Mg749   2.146   1_545  S
O724        C745   1.238       .  S
O725        C756   1.271       .  A
O725       Mg749   2.300   1_556  S
C726        O728   1.276       .  A
C726        O740   1.279       .  A
C726       C2769   1.503       .  S
O727        C755   1.273       .  A
O727       Mg729   2.307       .  S
O728       Mg760   2.285   1_545  S
Mg729       O735   2.149   1_556  S
Mg729       O743   2.287       .  S
Mg729       O731   2.340       .  S
C730        O768   1.275       .  A
C730        O736   1.274       .  A
C730       C1285   1.493       .  S
O731        C738   1.280   1_556  A
H732        C745   1.082       .  S
C733        O747   1.239       .  S
C733        O748   1.273   1_545  A
C733        H758   1.082       .  S
O734        C757   1.273       .  A
O735       Mg749   2.141       .  S
O736       Mg766   2.301       .  S
C737        O750   1.270       .  A
C737        O742   1.276   1_545  A
C737       C1404   1.483       .  S
C738        O765   1.273       .  A
C738       C2132   1.500       .  S
Mg739       O746   2.147       .  S
Mg739       O747   2.146   1_556  S
Mg739       O740   2.335       .  S
Mg739       O741   2.308       .  S
Mg739       O768   2.297   1_556  S
O741        C745   1.273   1_556  A
O742       Mg749   2.322       .  S
O743        C762   1.275       .  A
O744        C764   1.279       .  A
O744       Mg760   2.334       .  S
O746       Mg760   2.140   1_545  S
O746        C757   1.239       .  S
O747       Mg766   2.138       .  S
O748       Mg760   2.305   1_554  S
Mg749       O765   2.261       .  S
O750       Mg766   2.257       .  S
H751        C756   1.082       .  S
O752       Mg760   2.157       .  S
O752        C755   1.239       .  S
H753        C755   1.082       .  S
H754        C757   1.081       .  S
O759       Mg766   2.305   1_565  S
C762        O767   1.278       .  A
C762       C1257   1.495       .  S
O763        C764   1.272       .  A
C764       C3504   1.499       .  S
C769        C770   1.523       .  S
C769        C775   1.534       .  S
C769        C773   1.565       .  S
C769       C1292   1.572       .  S
C770        H777   1.088       .  S
C770        C771   1.358       .  D
C771        C772   1.561       .  S
C771       C1565   1.494       .  S
C772        C776   1.552       .  S
C772        C774   1.536       .  S
C772        H778   1.104       .  S
C773        H779   1.077       .  S
C773        C774   1.376       .  D
C774       C1229   1.518       .  S
C775        H780   1.086       .  S
C775        C776   1.366       .  D
C776       C1852   1.520       .  S
O781       Mg783   2.140       .  S
O781       Mg789   2.137       .  S
O781        C816   1.238       .  S
C782        O795   1.236       .  S
C782        O819   1.270   1_556  A
C782        H821   1.082       .  S
Mg783       O812   2.140       .  S
Mg783       O827   2.336       .  S
Mg783       O823   2.279       .  S
Mg783       O794   2.304       .  S
O784       Mg826   2.145       .  S
O784       Mg809   2.120       .  S
O784        C805   1.237       .  S
O785        C816   1.273   1_554  A
O785       Mg809   2.304       .  S
C786        O788   1.273   1_554  A
C786        O800   1.272       .  A
C786       C3056   1.507       .  S
O787        C815   1.273       .  A
O787       Mg789   2.304       .  S
O788       Mg820   2.270       .  S
Mg789       O795   2.145       .  S
Mg789       O803   2.267       .  S
Mg789       O791   2.300       .  S
C790        O828   1.269       .  A
C790        O796   1.275       .  A
C790       C2468   1.478       .  S
O791        C798   1.275       .  A
H792        C805   1.081       .  S
C793        O807   1.239       .  S
C793        O808   1.275   1_554  A
C793        H818   1.082       .  S
O794        C817   1.271   1_556  A
O795       Mg809   2.147   1_556  S
O796       Mg826   2.311       .  S
C797        O810   1.275       .  A
C797        O802   1.279       .  A
C797       C1236   1.498       .  S
C798        O825   1.271   1_556  A
C798       C1488   1.482       .  S
Mg799       O806   2.135       .  S
Mg799       O807   2.147       .  S
Mg799       O800   2.301       .  S
Mg799       O801   2.291       .  S
Mg799       O828   2.235       .  S
O801        C805   1.270       .  A
O802       Mg809   2.332       .  S
O803        C822   1.272       .  A
O804        C824   1.279       .  A
O804       Mg820   2.335       .  S
O806       Mg820   2.127   1_554  S
O806        C817   1.237       .  S
O807       Mg826   2.151       .  S
O808       Mg820   2.315       .  S
Mg809       O825   2.249       .  S
O810       Mg826   2.278       .  S
H811        C816   1.082       .  S
O812       Mg820   2.136       .  S
O812        C815   1.239       .  S
H813        C815   1.081       .  S
H814        C817   1.083       .  S
O819       Mg826   2.297       .  S
C822        O827   1.279       .  A
C822       C2692   1.489       .  S
O823        C824   1.276       .  A
C824       C1201   1.501       .  S
O829       Mg831   2.151       .  S
O829       Mg837   2.147       .  S
O829        C864   1.238       .  S
C830        O843   1.238       .  S
C830        O867   1.272       .  A
C830        H869   1.081       .  S
Mg831       O860   2.150       .  S
Mg831       O875   2.329       .  S
Mg831       O871   2.288       .  S
Mg831       O842   2.297   1_455  S
O832       Mg874   2.138       .  S
O832       Mg857   2.129       .  S
O832        C853   1.238       .  S
O833        C864   1.272   1_655  A
O833       Mg857   2.305       .  S
C834        O836   1.276       .  A
C834        O848   1.274       .  A
C834       C3308   1.508       .  S
O835        C863   1.272       .  A
O835       Mg837   2.303       .  S
O836       Mg868   2.298   1_655  S
Mg837       O843   2.144       .  S
Mg837       O851   2.274       .  S
Mg837       O839   2.319       .  S
C838        O876   1.272       .  A
C838        O844   1.275       .  A
C838       C2608   1.499       .  S
O839        C846   1.278       .  A
H840        C853   1.082       .  S
C841        O855   1.237       .  S
C841        O856   1.271       .  A
C841        H866   1.081       .  S
O842        C865   1.271       .  A
O843       Mg857   2.150   1_455  S
O844       Mg874   2.297       .  S
C845        O858   1.272       .  A
C845        O850   1.278       .  A
C845       C1656   1.495       .  S
C846        O873   1.272       .  A
C846       C1173   1.494       .  S
Mg847       O854   2.131       .  S
Mg847       O855   2.149       .  S
Mg847       O848   2.296       .  S
Mg847       O849   2.300       .  S
Mg847       O876   2.267       .  S
O849        C853   1.271       .  A
O850       Mg857   2.328       .  S
O851        C870   1.274       .  A
O852        C872   1.277       .  A
O852       Mg868   2.310       .  S
O854       Mg868   2.154   1_655  S
O854        C865   1.238       .  S
O855       Mg874   2.135       .  S
O856       Mg868   2.294   1_655  S
Mg857       O873   2.259   1_655  S
O858       Mg874   2.272       .  S
H859        C864   1.082       .  S
O860       Mg868   2.149       .  S
O860        C863   1.238       .  S
H861        C863   1.081       .  S
H862        C865   1.081       .  S
O867       Mg874   2.303   1_455  S
C870        O875   1.279       .  A
C870       C2412   1.497       .  S
O871        C872   1.276       .  A
C872       C1145   1.497       .  S
O877       Mg879   2.140       .  S
O877       Mg885   2.146       .  S
O877        C912   1.238       .  S
C878        O891   1.239       .  S
C878        O915   1.273       .  A
C878        H917   1.081       .  S
Mg879       O908   2.147       .  S
Mg879       O923   2.303       .  S
Mg879       O919   2.265       .  S
Mg879       O890   2.298   1_556  S
O880       Mg922   2.138       .  S
O880       Mg905   2.131       .  S
O880        C901   1.238       .  S
O881        C912   1.272   1_554  A
O881       Mg905   2.304   1_655  S
C882        O884   1.273       .  A
C882        O896   1.278       .  A
C882       C2300   1.487       .  S
O883        C911   1.271       .  A
O883       Mg885   2.302       .  S
O884       Mg916   2.258   1_554  S
Mg885       O891   2.141   1_655  S
Mg885       O899   2.277       .  S
Mg885       O887   2.320   1_655  S
C886        O924   1.277       .  A
C886        O892   1.275       .  A
C886       C1117   1.497       .  S
O887        C894   1.277       .  A
H888        C901   1.082       .  S
C889        O903   1.237       .  S
C889        O904   1.270       .  A
C889        H914   1.082       .  S
O890        C913   1.271       .  A
O891       Mg905   2.139   1_556  S
O892       Mg922   2.302       .  S
C893        O906   1.271       .  A
C893        O898   1.274       .  A
C893       C1453   1.499       .  S
C894        O921   1.270       .  A
C894       C1880   1.486       .  S
Mg895       O902   2.150       .  S
Mg895       O903   2.148   1_655  S
Mg895       O896   2.318       .  S
Mg895       O897   2.298       .  S
Mg895       O924   2.295   1_655  S
O897        C901   1.271   1_655  A
O898       Mg905   2.303       .  S
O899        C918   1.273       .  A
O900        C920   1.277       .  A
O900       Mg916   2.318       .  S
O902       Mg916   2.155   1_554  S
O902        C913   1.238       .  S
O903       Mg922   2.128       .  S
O904       Mg916   2.294   1_454  S
Mg905       O921   2.253   1_554  S
O906       Mg922   2.267       .  S
H907        C912   1.082       .  S
O908       Mg916   2.137       .  S
O908        C911   1.237       .  S
H909        C911   1.082       .  S
H910        C913   1.081       .  S
O915       Mg922   2.307   1_556  S
C918        O923   1.275       .  A
C918       C3329   1.486       .  S
O919        C920   1.272       .  A
C920       C3028   1.489       .  S
C925        C926   1.517       .  S
C925        C931   1.540       .  S
C925        C929   1.557       .  S
C925       C2244   1.555       .  S
C926        H933   1.088       .  S
C926        C927   1.352       .  D
C927        C928   1.554       .  S
C927       C1180   1.488       .  S
C928        C932   1.543       .  S
C928        C930   1.547       .  S
C928        H934   1.102       .  S
C929        H935   1.075       .  S
C929        C930   1.382       .  D
C930       C1516   1.525       .  S
C931        H936   1.086       .  S
C931        C932   1.366       .  D
C932       C1124   1.509       .  S
O937       Mg939   2.147       .  S
O937       Mg945   2.145       .  S
O937        C972   1.238       .  S
C938        O951   1.237       .  S
C938        O975   1.271       .  A
C938        H977   1.083       .  S
Mg939       O968   2.142       .  S
Mg939       O983   2.302       .  S
Mg939       O979   2.274       .  S
Mg939       O950   2.296       .  S
O940       Mg982   2.142       .  S
O940       Mg965   2.132       .  S
O940        C961   1.238       .  S
O941        C972   1.273       .  A
O941       Mg965   2.310       .  S
C942        O944   1.272       .  A
C942        O956   1.273       .  A
C942       C2580   1.482       .  S
O943        C971   1.273       .  A
O943       Mg945   2.302       .  S
O944       Mg976   2.261       .  S
Mg945       O951   2.148       .  S
Mg945       O959   2.277       .  S
Mg945       O947   2.324       .  S
C946        O984   1.271       .  A
C946        O952   1.275       .  A
C946       C2496   1.483       .  S
O947        C954   1.278       .  A
H948        C961   1.082       .  S
C949        O963   1.238       .  S
C949        O964   1.272       .  A
C949        H974   1.082       .  S
O950        C973   1.270       .  A
O951       Mg965   2.143       .  S
O952       Mg982   2.308       .  S
C953        O966   1.272       .  A
C953        O958   1.281       .  A
C953       C2972   1.499       .  S
C954        O981   1.273       .  A
C954       C2384   1.485       .  S
Mg955       O962   2.130       .  S
Mg955       O963   2.145       .  S
Mg955       O956   2.291       .  S
Mg955       O957   2.298       .  S
Mg955       O984   2.253       .  S
O957        C961   1.272       .  A
O958       Mg965   2.348       .  S
O959        C978   1.274       .  A
O960        C980   1.277       .  A
O960       Mg976   2.325       .  S
O962       Mg976   2.143       .  S
O962        C973   1.236       .  S
O963       Mg982   2.140       .  S
O964       Mg976   2.304       .  S
Mg965       O981   2.262       .  S
O966       Mg982   2.261       .  S
H967        C972   1.082       .  S
O968       Mg976   2.134       .  S
O968        C971   1.239       .  S
H969        C971   1.081       .  S
H970        C973   1.082       .  S
O975       Mg982   2.299       .  S
C978        O983   1.275       .  A
C978       C2720   1.495       .  S
O979        C980   1.274       .  A
C980       C2020   1.502       .  S
C985        C986   1.541   1_655  S
C985        C991   1.539       .  S
C985        C989   1.525       .  S
C985       C1348   1.550       .  S
C986        H993   1.082       .  S
C986        C987   1.368       .  D
C987        C988   1.548   1_455  S
C987       C1089   1.511       .  S
C988        C992   1.549       .  S
C988        C990   1.556       .  S
C988        H994   1.104       .  S
C989        H995   1.086       .  S
C989        C990   1.361       .  D
C990       C1152   1.491       .  S
C991        H996   1.083       .  S
C991        C992   1.369       .  D
C992       C3721   1.512       .  S
O997       Mg999   2.133       .  S
O997      Mg1005   2.149       .  S
O997       C1032   1.238       .  S
C998       O1011   1.238       .  S
C998       O1035   1.272       .  A
C998       H1037   1.082       .  S
Mg999      O1028   2.142       .  S
Mg999      O1043   2.308       .  S
Mg999      O1039   2.265       .  S
Mg999      O1010   2.302       .  S
O1000     Mg1042   2.144       .  S
O1000     Mg1025   2.136       .  S
O1000      C1021   1.237       .  S
O1001      C1032   1.271       .  A
O1001     Mg1025   2.294       .  S
C1002      O1004   1.273       .  A
C1002      O1016   1.273       .  A
C1002      C1061   1.487       .  S
O1003      C1031   1.271       .  A
O1003     Mg1005   2.298       .  S
O1004     Mg1036   2.271       .  S
Mg1005     O1011   2.142       .  S
Mg1005     O1019   2.276       .  S
Mg1005     O1007   2.321       .  S
C1006      O1044   1.272       .  A
C1006      O1012   1.279       .  A
C1006      C2636   1.506       .  S
O1007      C1014   1.277       .  A
H1008      C1021   1.082       .  S
C1009      O1023   1.239       .  S
C1009      O1024   1.274       .  A
C1009      H1034   1.081       .  S
O1010      C1033   1.272       .  A
O1011     Mg1025   2.151       .  S
O1012     Mg1042   2.339       .  S
C1013      O1026   1.274       .  A
C1013      O1018   1.276       .  A
C1013      C2356   1.492       .  S
C1014      O1041   1.272       .  A
C1014      C1096   1.482       .  S
Mg1015     O1022   2.139       .  S
Mg1015     O1023   2.138       .  S
Mg1015     O1016   2.289       .  S
Mg1015     O1017   2.298       .  S
Mg1015     O1044   2.261       .  S
O1017      C1021   1.270       .  A
O1018     Mg1025   2.311       .  S
O1019      C1038   1.275       .  A
O1020      C1040   1.279       .  A
O1020     Mg1036   2.330       .  S
O1022     Mg1036   2.145       .  S
O1022      C1033   1.238       .  S
O1023     Mg1042   2.143       .  S
O1024     Mg1036   2.309       .  S
Mg1025     O1041   2.260       .  S
O1026     Mg1042   2.269       .  S
H1027      C1032   1.081       .  S
O1028     Mg1036   2.133       .  S
O1028      C1031   1.238       .  S
H1029      C1031   1.082       .  S
H1030      C1033   1.082       .  S
O1035     Mg1042   2.302       .  S
C1038      O1043   1.276       .  A
C1038      C2832   1.493       .  S
O1039      C1040   1.273       .  A
C1040      C2097   1.494       .  S
C1045      C1046   1.540       .  S
C1045      C1051   1.523       .  S
C1045      C1049   1.545       .  S
C1045      C1068   1.553       .  S
C1046      H1053   1.086       .  S
C1046      C1047   1.367       .  D
C1047      C1048   1.549       .  S
C1047      C1264   1.502       .  S
C1048      C1052   1.552       .  S
C1048      C1050   1.546       .  S
C1048      H1054   1.109       .  S
C1049      H1055   1.080       .  S
C1049      C1050   1.369       .  D
C1050      C3644   1.503       .  S
C1051      H1056   1.087       .  S
C1051      C1052   1.363       .  D
C1052      C1208   1.501       .  S
C1057      C1058   1.408       .  A
C1057      C1062   1.411       .  A
C1057      C1075   1.450       .  S
C1058      C1063   1.492       .  S
C1058      C1059   1.409       .  A
C1059      C1060   1.408       .  A
C1059      C1064   1.452       .  S
C1060      C1061   1.416       .  A
C1060      C1076   1.450       .  S
C1061      C1062   1.416       .  A
C1062      C1065   1.450       .  S
C1063      C1066   1.403       .  A
C1063      C1070   1.405       .  A
C1064      N1081   1.157       .  T
C1065      N1083   1.157       .  T
C1066      C1067   1.406       .  A
C1066      C1071   1.454       .  S
C1067      C1068   1.426       .  A
C1067      C1073   1.447       .  S
C1068      C1069   1.430       .  A
C1069      C1070   1.415       .  A
C1069      C1072   1.449       .  S
C1070      C1074   1.451       .  S
C1071      N1078   1.157       .  T
C1072      N1079   1.158       .  T
C1073      N1077   1.155       .  T
C1074      N1080   1.157       .  T
C1075      N1084   1.157       .  T
C1076      N1082   1.157       .  T
C1085      C1086   1.407       .  A
C1085      C1090   1.411       .  A
C1085      C1103   1.452       .  S
C1086      C1091   1.501       .  S
C1086      C1087   1.411       .  A
C1087      C1088   1.415       .  A
C1087      C1092   1.451       .  S
C1088      C1089   1.419       .  A
C1088      C1104   1.447       .  S
C1089      C1090   1.422       .  A
C1090      C1093   1.450       .  S
C1091      C1094   1.412       .  A
C1091      C1098   1.415       .  A
C1092      N1109   1.157       .  T
C1093      N1111   1.157       .  T
C1094      C1095   1.412       .  A
C1094      C1099   1.450       .  S
C1095      C1096   1.413       .  A
C1095      C1101   1.451       .  S
C1096      C1097   1.410       .  A
C1097      C1098   1.412       .  A
C1097      C1100   1.451       .  S
C1098      C1102   1.451       .  S
C1099      N1106   1.157       .  T
C1100      N1107   1.157       .  T
C1101      N1105   1.157       .  T
C1102      N1108   1.157       .  T
C1103      N1112   1.157       .  T
C1104      N1110   1.157       .  T
C1113      C1114   1.409       .  A
C1113      C1118   1.413       .  A
C1113      C1131   1.451       .  S
C1114      C1119   1.501       .  S
C1114      C1115   1.412       .  A
C1115      C1116   1.414       .  A
C1115      C1120   1.451       .  S
C1116      C1117   1.416       .  A
C1116      C1132   1.451       .  S
C1117      C1118   1.420       .  A
C1118      C1121   1.451       .  S
C1119      C1122   1.408       .  A
C1119      C1126   1.410       .  A
C1120      N1137   1.157       .  T
C1121      N1139   1.157       .  T
C1122      C1123   1.410       .  A
C1122      C1127   1.451       .  S
C1123      C1124   1.421       .  A
C1123      C1129   1.451       .  S
C1124      C1125   1.419       .  A
C1125      C1126   1.416       .  A
C1125      C1128   1.447       .  S
C1126      C1130   1.450       .  S
C1127      N1134   1.157       .  T
C1128      N1135   1.157       .  T
C1129      N1133   1.157       .  T
C1130      N1136   1.157       .  T
C1131      N1140   1.157       .  T
C1132      N1138   1.157       .  T
C1141      C1142   1.410       .  A
C1141      C1146   1.413       .  A
C1141      C1159   1.450       .  S
C1142      C1147   1.500   1_455  S
C1142      C1143   1.410       .  A
C1143      C1144   1.413       .  A
C1143      C1148   1.451   1_455  S
C1144      C1145   1.418       .  A
C1144      C1160   1.451       .  S
C1145      C1146   1.418       .  A
C1146      C1149   1.451       .  S
C1147      C1150   1.411   1_655  A
C1147      C1154   1.412       .  A
C1148      N1165   1.157       .  T
C1149      N1167   1.157       .  T
C1150      C1151   1.411       .  A
C1150      C1155   1.450       .  S
C1151      C1152   1.413   1_455  A
C1151      C1157   1.451       .  S
C1152      C1153   1.411       .  A
C1153      C1154   1.413       .  A
C1153      C1156   1.450       .  S
C1154      C1158   1.449       .  S
C1155      N1162   1.157       .  T
C1156      N1163   1.157       .  T
C1157      N1161   1.157       .  T
C1158      N1164   1.157       .  T
C1159      N1168   1.157       .  T
C1160      N1166   1.157       .  T
C1169      C1170   1.411       .  A
C1169      C1174   1.411       .  A
C1169      C1187   1.451       .  S
C1170      C1175   1.499       .  S
C1170      C1171   1.410       .  A
C1171      C1172   1.413       .  A
C1171      C1176   1.451       .  S
C1172      C1173   1.419       .  A
C1172      C1188   1.451       .  S
C1173      C1174   1.417       .  A
C1174      C1177   1.452       .  S
C1175      C1178   1.411       .  A
C1175      C1182   1.412       .  A
C1176      N1193   1.157       .  T
C1177      N1195   1.157       .  T
C1178      C1179   1.408       .  A
C1178      C1183   1.452       .  S
C1179      C1180   1.416       .  A
C1179      C1185   1.453       .  S
C1180      C1181   1.413       .  A
C1181      C1182   1.413       .  A
C1181      C1184   1.450       .  S
C1182      C1186   1.450       .  S
C1183      N1190   1.157       .  T
C1184      N1191   1.157       .  T
C1185      N1189   1.157       .  T
C1186      N1192   1.157       .  T
C1187      N1196   1.157       .  T
C1188      N1194   1.158       .  T
C1197      C1198   1.410       .  A
C1197      C1202   1.413       .  A
C1197      C1215   1.451       .  S
C1198      C1203   1.501       .  S
C1198      C1199   1.410       .  A
C1199      C1200   1.415       .  A
C1199      C1204   1.451       .  S
C1200      C1201   1.418       .  A
C1200      C1216   1.448       .  S
C1201      C1202   1.420       .  A
C1202      C1205   1.451       .  S
C1203      C1206   1.413       .  A
C1203      C1210   1.408       .  A
C1204      N1221   1.157       .  T
C1205      N1223   1.157       .  T
C1206      C1207   1.418       .  A
C1206      C1211   1.449       .  S
C1207      C1208   1.414       .  A
C1207      C1213   1.448       .  S
C1208      C1209   1.419       .  A
C1209      C1210   1.407       .  A
C1209      C1212   1.452       .  S
C1210      C1214   1.452       .  S
C1211      N1218   1.157       .  T
C1212      N1219   1.157       .  T
C1213      N1217   1.157       .  T
C1214      N1220   1.157       .  T
C1215      N1224   1.157       .  T
C1216      N1222   1.156       .  T
C1225      C1226   1.409       .  A
C1225      C1230   1.414       .  A
C1225      C1243   1.452       .  S
C1226      C1231   1.508       .  S
C1226      C1227   1.409       .  A
C1227      C1228   1.417       .  A
C1227      C1232   1.452       .  S
C1228      C1229   1.425       .  A
C1228      C1244   1.447       .  S
C1229      C1230   1.423       .  A
C1230      C1233   1.449       .  S
C1231      C1234   1.413       .  A
C1231      C1238   1.413       .  A
C1232      N1249   1.157       .  T
C1233      N1251   1.156       .  T
C1234      C1235   1.414       .  A
C1234      C1239   1.451       .  S
C1235      C1236   1.416       .  A
C1235      C1241   1.450       .  S
C1236      C1237   1.417       .  A
C1237      C1238   1.414       .  A
C1237      C1240   1.451       .  S
C1238      C1242   1.451       .  S
C1239      N1246   1.157       .  T
C1240      N1247   1.157       .  T
C1241      N1245   1.157       .  T
C1242      N1248   1.157       .  T
C1243      N1252   1.157       .  T
C1244      N1250   1.157       .  T
C1253      C1254   1.412       .  A
C1253      C1258   1.414       .  A
C1253      C1271   1.451       .  S
C1254      C1259   1.507       .  S
C1254      C1255   1.414       .  A
C1255      C1256   1.416       .  A
C1255      C1260   1.450       .  S
C1256      C1257   1.415       .  A
C1256      C1272   1.451       .  S
C1257      C1258   1.416       .  A
C1258      C1261   1.450       .  S
C1259      C1262   1.411       .  A
C1259      C1266   1.413       .  A
C1260      N1277   1.157       .  T
C1261      N1279   1.157       .  T
C1262      C1263   1.411       .  A
C1262      C1267   1.450       .  S
C1263      C1264   1.413       .  A
C1263      C1269   1.448       .  S
C1264      C1265   1.414       .  A
C1265      C1266   1.417       .  A
C1265      C1268   1.446       .  S
C1266      C1270   1.450       .  S
C1267      N1274   1.157       .  T
C1268      N1275   1.156       .  T
C1269      N1273   1.157       .  T
C1270      N1276   1.157       .  T
C1271      N1280   1.157       .  T
C1272      N1278   1.157       .  T
C1281      C1282   1.410       .  A
C1281      C1286   1.413       .  A
C1281      C1299   1.450       .  S
C1282      C1287   1.504       .  S
C1282      C1283   1.413       .  A
C1283      C1284   1.414       .  A
C1283      C1288   1.450       .  S
C1284      C1285   1.414       .  A
C1284      C1300   1.450       .  S
C1285      C1286   1.418       .  A
C1286      C1289   1.451       .  S
C1287      C1290   1.402       .  A
C1287      C1294   1.404       .  A
C1288      N1305   1.157       .  T
C1289      N1307   1.157       .  T
C1290      C1291   1.413       .  A
C1290      C1295   1.453       .  S
C1291      C1292   1.439       .  A
C1291      C1297   1.455       .  S
C1292      C1293   1.436       .  A
C1293      C1294   1.420       .  A
C1293      C1296   1.445       .  S
C1294      C1298   1.454       .  S
C1295      N1302   1.157       .  T
C1296      N1303   1.158       .  T
C1297      N1301   1.158       .  T
C1298      N1304   1.157       .  T
C1299      N1308   1.157       .  T
C1300      N1306   1.157       .  T
C1309      C1310   1.409       .  A
C1309      C1314   1.415       .  A
C1309      C1327   1.450       .  S
C1310      C1315   1.500       .  S
C1310      C1311   1.409       .  A
C1311      C1312   1.410       .  A
C1311      C1316   1.452       .  S
C1312      C1313   1.421       .  A
C1312      C1328   1.452       .  S
C1313      C1314   1.421       .  A
C1314      C1317   1.451       .  S
C1315      C1318   1.409       .  A
C1315      C1322   1.405       .  A
C1316      N1333   1.157       .  T
C1317      N1335   1.158       .  T
C1318      C1319   1.418       .  A
C1318      C1323   1.450       .  S
C1319      C1320   1.420       .  A
C1319      C1325   1.446       .  S
C1320      C1321   1.428       .  A
C1321      C1322   1.408       .  A
C1321      C1324   1.451       .  S
C1322      C1326   1.454       .  S
C1323      N1330   1.157       .  T
C1324      N1331   1.157       .  T
C1325      N1329   1.157       .  T
C1326      N1332   1.157       .  T
C1327      N1336   1.157       .  T
C1328      N1334   1.158       .  T
C1337      C1338   1.411       .  A
C1337      C1342   1.414       .  A
C1337      C1355   1.450       .  S
C1338      C1343   1.496       .  S
C1338      C1339   1.408       .  A
C1339      C1340   1.410       .  A
C1339      C1344   1.452       .  S
C1340      C1341   1.420       .  A
C1340      C1356   1.452       .  S
C1341      C1342   1.415       .  A
C1342      C1345   1.450       .  S
C1343      C1346   1.408       .  A
C1343      C1350   1.408   1_655  A
C1344      N1361   1.157       .  T
C1345      N1363   1.157       .  T
C1346      C1347   1.411       .  A
C1346      C1351   1.450       .  S
C1347      C1348   1.423       .  A
C1347      C1353   1.451       .  S
C1348      C1349   1.423   1_655  A
C1349      C1350   1.411       .  A
C1349      C1352   1.451       .  S
C1350      C1354   1.451       .  S
C1351      N1358   1.157       .  T
C1352      N1359   1.158       .  T
C1353      N1357   1.158       .  T
C1354      N1360   1.157       .  T
C1355      N1364   1.157       .  T
C1356      N1362   1.157       .  T
C1365      C1366   1.412       .  A
C1365      C1370   1.415       .  A
C1365      C1383   1.451       .  S
C1366      C1371   1.508       .  S
C1366      C1367   1.414       .  A
C1367      C1368   1.416       .  A
C1367      C1372   1.451       .  S
C1368      C1369   1.416       .  A
C1368      C1384   1.451       .  S
C1369      C1370   1.418       .  A
C1370      C1373   1.451       .  S
C1371      C1374   1.412       .  A
C1371      C1378   1.414       .  A
C1372      N1389   1.157       .  T
C1373      N1391   1.157       .  T
C1374      C1375   1.413       .  A
C1374      C1379   1.451       .  S
C1375      C1376   1.419       .  A
C1375      C1381   1.452       .  S
C1376      C1377   1.412       .  A
C1377      C1378   1.416       .  A
C1377      C1380   1.449       .  S
C1378      C1382   1.450       .  S
C1379      N1386   1.157       .  T
C1380      N1387   1.157       .  T
C1381      N1385   1.157       .  T
C1382      N1388   1.157       .  T
C1383      N1392   1.157       .  T
C1384      N1390   1.157       .  T
C1393      C1394   1.407       .  A
C1393      C1398   1.416       .  A
C1393      C1411   1.451       .  S
C1394      C1399   1.497       .  S
C1394      C1395   1.404       .  A
C1395      C1396   1.410       .  A
C1395      C1400   1.454   1_545  S
C1396      C1397   1.426       .  A
C1396      C1412   1.446       .  S
C1397      C1398   1.429       .  A
C1398      C1401   1.450       .  S
C1399      C1402   1.411   1_545  A
C1399      C1406   1.411       .  A
C1400      N1417   1.157       .  T
C1401      N1419   1.157       .  T
C1402      C1403   1.412       .  A
C1402      C1407   1.450       .  S
C1403      C1404   1.412   1_565  A
C1403      C1409   1.451       .  S
C1404      C1405   1.413       .  A
C1405      C1406   1.410       .  A
C1405      C1408   1.450       .  S
C1406      C1410   1.451       .  S
C1407      N1414   1.157       .  T
C1408      N1415   1.157       .  T
C1409      N1413   1.157       .  T
C1410      N1416   1.157       .  T
C1411      N1420   1.157       .  T
C1412      N1418   1.155       .  T
C1421      C1422   1.411       .  A
C1421      C1426   1.411       .  A
C1421      C1439   1.449       .  S
C1422      C1427   1.498       .  S
C1422      C1423   1.412   1_565  A
C1423      C1424   1.411       .  A
C1423      C1428   1.450       .  S
C1424      C1425   1.411       .  A
C1424      C1440   1.451       .  S
C1425      C1426   1.410   1_545  A
C1426      C1429   1.450       .  S
C1427      C1430   1.410       .  A
C1427      C1434   1.411       .  A
C1428      N1445   1.157       .  T
C1429      N1447   1.157       .  T
C1430      C1431   1.413       .  A
C1430      C1435   1.450       .  S
C1431      C1432   1.416       .  A
C1431      C1437   1.451       .  S
C1432      C1433   1.415       .  A
C1433      C1434   1.412       .  A
C1433      C1436   1.451       .  S
C1434      C1438   1.451   1_565  S
C1435      N1442   1.157       .  T
C1436      N1443   1.157       .  T
C1437      N1441   1.157       .  T
C1438      N1444   1.157       .  T
C1439      N1448   1.157       .  T
C1440      N1446   1.157       .  T
C1449      C1450   1.409       .  A
C1449      C1454   1.412       .  A
C1449      C1467   1.452       .  S
C1450      C1455   1.497       .  S
C1450      C1451   1.409       .  A
C1451      C1452   1.409       .  A
C1451      C1456   1.452   1_554  S
C1452      C1453   1.421       .  A
C1452      C1468   1.452       .  S
C1453      C1454   1.423       .  A
C1454      C1457   1.451       .  S
C1455      C1458   1.408       .  A
C1455      C1462   1.409   1_554  A
C1456      N1473   1.157       .  T
C1457      N1475   1.158       .  T
C1458      C1459   1.408       .  A
C1458      C1463   1.453       .  S
C1459      C1460   1.418       .  A
C1459      C1465   1.447       .  S
C1460      C1461   1.420   1_554  A
C1461      C1462   1.412       .  A
C1461      C1464   1.451       .  S
C1462      C1466   1.451       .  S
C1463      N1470   1.157       .  T
C1464      N1471   1.157       .  T
C1465      N1469   1.157       .  T
C1466      N1472   1.157       .  T
C1467      N1476   1.157       .  T
C1468      N1474   1.157       .  T
C1477      C1478   1.405   1_554  A
C1477      C1482   1.410       .  A
C1477      C1495   1.452       .  S
C1478      C1483   1.491       .  S
C1478      C1479   1.405       .  A
C1479      C1480   1.410       .  A
C1479      C1484   1.451       .  S
C1480      C1481   1.425   1_556  A
C1480      C1496   1.450       .  S
C1481      C1482   1.422       .  A
C1482      C1485   1.447       .  S
C1483      C1486   1.411   1_556  A
C1483      C1490   1.409       .  A
C1484      N1501   1.157       .  T
C1485      N1503   1.156       .  T
C1486      C1487   1.408       .  A
C1486      C1491   1.451       .  S
C1487      C1488   1.413   1_554  A
C1487      C1493   1.451       .  S
C1488      C1489   1.416       .  A
C1489      C1490   1.409       .  A
C1489      C1492   1.452       .  S
C1490      C1494   1.451       .  S
C1491      N1498   1.157       .  T
C1492      N1499   1.157       .  T
C1493      N1497   1.157       .  T
C1494      N1500   1.157       .  T
C1495      N1504   1.157       .  T
C1496      N1502   1.157       .  T
C1505      C1506   1.412       .  A
C1505      C1510   1.411       .  A
C1505      C1523   1.451       .  S
C1506      C1511   1.504       .  S
C1506      C1507   1.413       .  A
C1507      C1508   1.415       .  A
C1507      C1512   1.450       .  S
C1508      C1509   1.415       .  A
C1508      C1524   1.451       .  S
C1509      C1510   1.414       .  A
C1510      C1513   1.451       .  S
C1511      C1514   1.407       .  A
C1511      C1518   1.406       .  A
C1512      N1529   1.157       .  T
C1513      N1531   1.157       .  T
C1514      C1515   1.417       .  A
C1514      C1519   1.452       .  S
C1515      C1516   1.430       .  A
C1515      C1521   1.450       .  S
C1516      C1517   1.428       .  A
C1517      C1518   1.413       .  A
C1517      C1520   1.449       .  S
C1518      C1522   1.453       .  S
C1519      N1526   1.157       .  T
C1520      N1527   1.157       .  T
C1521      N1525   1.158       .  T
C1522      N1528   1.157       .  T
C1523      N1532   1.157       .  T
C1524      N1530   1.157       .  T
C1533      C1534   1.410       .  A
C1533      C1538   1.415       .  A
C1533      C1551   1.452       .  S
C1534      C1539   1.501       .  S
C1534      C1535   1.407       .  A
C1535      C1536   1.409       .  A
C1535      C1540   1.453       .  S
C1536      C1537   1.422       .  A
C1536      C1552   1.448       .  S
C1537      C1538   1.424       .  A
C1538      C1541   1.448       .  S
C1539      C1542   1.411       .  A
C1539      C1546   1.412       .  A
C1540      N1557   1.157       .  T
C1541      N1559   1.157       .  T
C1542      C1543   1.413       .  A
C1542      C1547   1.451       .  S
C1543      C1544   1.419       .  A
C1543      C1549   1.450       .  S
C1544      C1545   1.419       .  A
C1545      C1546   1.409       .  A
C1545      C1548   1.452       .  S
C1546      C1550   1.452       .  S
C1547      N1554   1.157       .  T
C1548      N1555   1.157       .  T
C1549      N1553   1.157       .  T
C1550      N1556   1.157       .  T
C1551      N1560   1.157       .  T
C1552      N1558   1.156       .  T
C1561      C1562   1.410       .  A
C1561      C1566   1.410       .  A
C1561      C1579   1.451       .  S
C1562      C1567   1.502       .  S
C1562      C1563   1.413       .  A
C1563      C1564   1.414       .  A
C1563      C1568   1.450       .  S
C1564      C1565   1.411       .  A
C1564      C1580   1.449       .  S
C1565      C1566   1.418       .  A
C1566      C1569   1.452       .  S
C1567      C1570   1.414       .  A
C1567      C1574   1.411       .  A
C1568      N1585   1.157       .  T
C1569      N1587   1.157       .  T
C1570      C1571   1.413       .  A
C1570      C1575   1.451       .  S
C1571      C1572   1.414       .  A
C1571      C1577   1.451       .  S
C1572      C1573   1.414       .  A
C1573      C1574   1.412       .  A
C1573      C1576   1.451       .  S
C1574      C1578   1.450       .  S
C1575      N1582   1.157       .  T
C1576      N1583   1.157       .  T
C1577      N1581   1.158       .  T
C1578      N1584   1.157       .  T
C1579      N1588   1.157       .  T
C1580      N1586   1.157       .  T
C1589      C1590   1.408       .  A
C1589      C1594   1.417       .  A
C1589      C1607   1.451       .  S
C1590      C1595   1.501       .  S
C1590      C1591   1.407       .  A
C1591      C1592   1.411       .  A
C1591      C1596   1.452       .  S
C1592      C1593   1.423       .  A
C1592      C1608   1.450       .  S
C1593      C1594   1.423       .  A
C1594      C1597   1.447       .  S
C1595      C1598   1.409       .  A
C1595      C1602   1.409       .  A
C1596      N1613   1.157       .  T
C1597      N1615   1.157       .  T
C1598      C1599   1.413       .  A
C1598      C1603   1.451       .  S
C1599      C1600   1.422       .  A
C1599      C1605   1.452       .  S
C1600      C1601   1.423       .  A
C1601      C1602   1.414       .  A
C1601      C1604   1.451       .  S
C1602      C1606   1.451       .  S
C1603      N1610   1.157       .  T
C1604      N1611   1.158       .  T
C1605      N1609   1.158       .  T
C1606      N1612   1.157       .  T
C1607      N1616   1.157       .  T
C1608      N1614   1.157       .  T
C1617      C1618   1.411       .  A
C1617      C1622   1.413       .  A
C1617      C1635   1.449       .  S
C1618      C1623   1.494       .  S
C1618      C1619   1.409       .  A
C1619      C1620   1.407       .  A
C1619      C1624   1.451       .  S
C1620      C1621   1.415       .  A
C1620      C1636   1.450       .  S
C1621      C1622   1.412       .  A
C1622      C1625   1.448       .  S
C1623      C1626   1.411       .  A
C1623      C1630   1.409       .  A
C1624      N1641   1.157       .  T
C1625      N1643   1.157       .  T
C1626      C1627   1.410       .  A
C1626      C1631   1.451       .  S
C1627      C1628   1.414       .  A
C1627      C1633   1.451       .  S
C1628      C1629   1.416       .  A
C1629      C1630   1.411       .  A
C1629      C1632   1.452       .  S
C1630      C1634   1.450       .  S
C1631      N1638   1.157       .  T
C1632      N1639   1.157       .  T
C1633      N1637   1.157       .  T
C1634      N1640   1.157       .  T
C1635      N1644   1.157       .  T
C1636      N1642   1.157       .  T
C1645      C1646   1.411       .  A
C1645      C1650   1.410       .  A
C1645      C1663   1.451       .  S
C1646      C1651   1.504       .  S
C1646      C1647   1.414       .  A
C1647      C1648   1.415       .  A
C1647      C1652   1.449       .  S
C1648      C1649   1.410       .  A
C1648      C1664   1.449   1_655  S
C1649      C1650   1.416       .  A
C1650      C1653   1.452       .  S
C1651      C1654   1.411       .  A
C1651      C1658   1.412   1_655  A
C1652      N1669   1.157       .  T
C1653      N1671   1.157       .  T
C1654      C1655   1.414       .  A
C1654      C1659   1.450       .  S
C1655      C1656   1.417       .  A
C1655      C1661   1.451       .  S
C1656      C1657   1.416   1_655  A
C1657      C1658   1.413       .  A
C1657      C1660   1.451       .  S
C1658      C1662   1.451       .  S
C1659      N1666   1.157       .  T
C1660      N1667   1.157       .  T
C1661      N1665   1.157       .  T
C1662      N1668   1.157       .  T
C1663      N1672   1.157       .  T
C1664      N1670   1.157       .  T
C1673      C1674   1.409       .  A
C1673      C1678   1.411       .  A
C1673      C1691   1.450   1_455  S
C1674      C1679   1.499       .  S
C1674      C1675   1.413       .  A
C1675      C1676   1.413       .  A
C1675      C1680   1.451       .  S
C1676      C1677   1.414       .  A
C1676      C1692   1.451       .  S
C1677      C1678   1.416       .  A
C1678      C1681   1.451       .  S
C1679      C1682   1.408       .  A
C1679      C1686   1.410   1_455  A
C1680      N1697   1.157       .  T
C1681      N1699   1.157   1_455  T
C1682      C1683   1.410       .  A
C1682      C1687   1.451       .  S
C1683      C1684   1.421   1_455  A
C1683      C1689   1.452       .  S
C1684      C1685   1.417       .  A
C1685      C1686   1.414       .  A
C1685      C1688   1.448       .  S
C1686      C1690   1.451       .  S
C1687      N1694   1.157       .  T
C1688      N1695   1.157       .  T
C1689      N1693   1.157       .  T
C1690      N1696   1.157       .  T
C1691      N1700   1.157       .  T
C1692      N1698   1.157       .  T
C1701      C1702   1.407       .  A
C1701      C1706   1.410       .  A
C1701      C1719   1.451       .  S
C1702      C1707   1.492       .  S
C1702      C1703   1.407       .  A
C1703      C1704   1.409       .  A
C1703      C1708   1.451       .  S
C1704      C1705   1.421       .  A
C1704      C1720   1.450       .  S
C1705      C1706   1.423       .  A
C1706      C1709   1.451       .  S
C1707      C1710   1.407       .  A
C1707      C1714   1.410       .  A
C1708      N1725   1.157       .  T
C1709      N1727   1.157       .  T
C1710      C1711   1.408       .  A
C1710      C1715   1.452       .  S
C1711      C1712   1.420       .  A
C1711      C1717   1.452       .  S
C1712      C1713   1.416       .  A
C1713      C1714   1.411       .  A
C1713      C1716   1.450       .  S
C1714      C1718   1.451       .  S
C1715      N1722   1.157       .  T
C1716      N1723   1.157       .  T
C1717      N1721   1.157       .  T
C1718      N1724   1.157       .  T
C1719      N1728   1.157       .  T
C1720      N1726   1.157       .  T
C1729      C1730   1.411   1_545  A
C1729      C1734   1.411       .  A
C1729      C1747   1.453       .  S
C1730      C1735   1.506       .  S
C1730      C1731   1.413       .  A
C1731      C1732   1.415       .  A
C1731      C1736   1.451       .  S
C1732      C1733   1.419       .  A
C1732      C1748   1.451       .  S
C1733      C1734   1.422   1_565  A
C1734      C1737   1.452       .  S
C1735      C1738   1.406       .  A
C1735      C1742   1.409   1_565  A
C1736      N1753   1.157       .  T
C1737      N1755   1.157       .  T
C1738      C1739   1.413       .  A
C1738      C1743   1.453       .  S
C1739      C1740   1.430       .  A
C1739      C1745   1.449       .  S
C1740      C1741   1.430   1_565  A
C1741      C1742   1.414       .  A
C1741      C1744   1.451       .  S
C1742      C1746   1.453       .  S
C1743      N1750   1.157       .  T
C1744      N1751   1.158       .  T
C1745      N1749   1.158       .  T
C1746      N1752   1.157       .  T
C1747      N1756   1.157       .  T
C1748      N1754   1.157       .  T
C1757      C1758   1.406       .  A
C1757      C1762   1.410       .  A
C1757      C1775   1.452       .  S
C1758      C1763   1.493       .  S
C1758      C1759   1.406   1_545  A
C1759      C1760   1.410       .  A
C1759      C1764   1.451       .  S
C1760      C1761   1.425   1_565  A
C1760      C1776   1.451       .  S
C1761      C1762   1.422       .  A
C1762      C1765   1.447       .  S
C1763      C1766   1.410       .  A
C1763      C1770   1.409       .  A
C1764      N1781   1.157       .  T
C1765      N1783   1.156       .  T
C1766      C1767   1.412       .  A
C1766      C1771   1.450       .  S
C1767      C1768   1.415       .  A
C1767      C1773   1.451       .  S
C1768      C1769   1.416       .  A
C1769      C1770   1.408       .  A
C1769      C1772   1.452       .  S
C1770      C1774   1.451       .  S
C1771      N1778   1.157       .  T
C1772      N1779   1.157   1_655  T
C1773      N1777   1.157       .  T
C1774      N1780   1.157       .  T
C1775      N1784   1.157       .  T
C1776      N1782   1.157       .  T
C1785      C1786   1.410       .  A
C1785      C1790   1.409       .  A
C1785      C1803   1.451       .  S
C1786      C1791   1.501       .  S
C1786      C1787   1.412       .  A
C1787      C1788   1.416       .  A
C1787      C1792   1.449       .  S
C1788      C1789   1.413       .  A
C1788      C1804   1.446       .  S
C1789      C1790   1.414       .  A
C1790      C1793   1.448       .  S
C1791      C1794   1.410       .  A
C1791      C1798   1.410       .  A
C1792      N1809   1.157       .  T
C1793      N1811   1.157       .  T
C1794      C1795   1.415       .  A
C1794      C1799   1.450       .  S
C1795      C1796   1.420       .  A
C1795      C1801   1.451       .  S
C1796      C1797   1.422       .  A
C1797      C1798   1.412       .  A
C1797      C1800   1.452       .  S
C1798      C1802   1.452       .  S
C1799      N1806   1.157       .  T
C1800      N1807   1.158       .  T
C1801      N1805   1.157       .  T
C1802      N1808   1.157       .  T
C1803      N1812   1.157       .  T
C1804      N1810   1.157       .  T
C1813      C1814   1.408       .  A
C1813      C1818   1.414       .  A
C1813      C1831   1.452       .  S
C1814      C1819   1.500       .  S
C1814      C1815   1.407       .  A
C1815      C1816   1.413       .  A
C1815      C1820   1.451       .  S
C1816      C1817   1.425       .  A
C1816      C1832   1.451       .  S
C1817      C1818   1.422       .  A
C1818      C1821   1.447       .  S
C1819      C1822   1.411       .  A
C1819      C1826   1.411       .  A
C1820      N1837   1.157       .  T
C1821      N1839   1.157       .  T
C1822      C1823   1.411       .  A
C1822      C1827   1.451       .  S
C1823      C1824   1.415       .  A
C1823      C1829   1.451       .  S
C1824      C1825   1.415       .  A
C1825      C1826   1.413       .  A
C1825      C1828   1.451       .  S
C1826      C1830   1.450       .  S
C1827      N1834   1.157       .  T
C1828      N1835   1.157       .  T
C1829      N1833   1.157       .  T
C1830      N1836   1.157       .  T
C1831      N1840   1.157       .  T
C1832      N1838   1.157       .  T
C1841      C1842   1.410       .  A
C1841      C1846   1.410       .  A
C1841      C1859   1.451       .  S
C1842      C1847   1.501       .  S
C1842      C1843   1.411       .  A
C1843      C1844   1.415       .  A
C1843      C1848   1.450       .  S
C1844      C1845   1.416       .  A
C1844      C1860   1.450       .  S
C1845      C1846   1.418       .  A
C1846      C1849   1.452       .  S
C1847      C1850   1.409       .  A
C1847      C1854   1.404       .  A
C1848      N1865   1.157       .  T
C1849      N1867   1.157       .  T
C1850      C1851   1.420       .  A
C1850      C1855   1.450       .  S
C1851      C1852   1.423       .  A
C1851      C1857   1.447       .  S
C1852      C1853   1.430       .  A
C1853      C1854   1.408       .  A
C1853      C1856   1.451       .  S
C1854      C1858   1.454       .  S
C1855      N1862   1.157       .  T
C1856      N1863   1.157       .  T
C1857      N1861   1.157       .  T
C1858      N1864   1.157       .  T
C1859      N1868   1.157       .  T
C1860      N1866   1.157       .  T
C1869      C1870   1.413       .  A
C1869      C1874   1.415   1_455  A
C1869      C1887   1.449       .  S
C1870      C1875   1.496       .  S
C1870      C1871   1.410       .  A
C1871      C1872   1.405       .  A
C1871      C1876   1.452       .  S
C1872      C1873   1.414   1_455  A
C1872      C1888   1.451       .  S
C1873      C1874   1.410       .  A
C1874      C1877   1.448       .  S
C1875      C1878   1.411       .  A
C1875      C1882   1.411   1_455  A
C1876      N1893   1.157       .  T
C1877      N1895   1.157       .  T
C1878      C1879   1.411       .  A
C1878      C1883   1.451       .  S
C1879      C1880   1.415       .  A
C1879      C1885   1.451       .  S
C1880      C1881   1.415   1_455  A
C1881      C1882   1.410       .  A
C1881      C1884   1.451       .  S
C1882      C1886   1.451       .  S
C1883      N1890   1.157       .  T
C1884      N1891   1.157       .  T
C1885      N1889   1.157       .  T
C1886      N1892   1.157       .  T
C1887      N1896   1.157   1_455  T
C1888      N1894   1.157       .  T
C1897      C1898   1.410   1_455  A
C1897      C1902   1.412       .  A
C1897      C1915   1.452       .  S
C1898      C1903   1.498       .  S
C1898      C1899   1.410       .  A
C1899      C1900   1.411       .  A
C1899      C1904   1.451       .  S
C1900      C1901   1.417       .  A
C1900      C1916   1.451       .  S
C1901      C1902   1.415   1_655  A
C1902      C1905   1.448       .  S
C1903      C1906   1.411   1_655  A
C1903      C1910   1.413       .  A
C1904      N1921   1.157       .  T
C1905      N1923   1.157       .  T
C1906      C1907   1.410       .  A
C1906      C1911   1.451       .  S
C1907      C1908   1.413   1_455  A
C1907      C1913   1.451       .  S
C1908      C1909   1.411       .  A
C1909      C1910   1.411       .  A
C1909      C1912   1.451       .  S
C1910      C1914   1.451       .  S
C1911      N1918   1.157       .  T
C1912      N1919   1.157       .  T
C1913      N1917   1.157       .  T
C1914      N1920   1.157       .  T
C1915      N1924   1.157       .  T
C1916      N1922   1.157       .  T
C1925      C1926   1.406       .  A
C1925      C1930   1.411       .  A
C1925      C1943   1.452       .  S
C1926      C1931   1.497       .  S
C1926      C1927   1.407       .  A
C1927      C1928   1.413       .  A
C1927      C1932   1.454       .  S
C1928      C1929   1.426       .  A
C1928      C1944   1.448       .  S
C1929      C1930   1.426       .  A
C1930      C1933   1.451       .  S
C1931      C1934   1.409       .  A
C1931      C1938   1.412       .  A
C1932      N1949   1.157       .  T
C1933      N1951   1.157       .  T
C1934      C1935   1.409       .  A
C1934      C1939   1.451       .  S
C1935      C1936   1.418       .  A
C1935      C1941   1.452       .  S
C1936      C1937   1.416       .  A
C1937      C1938   1.412       .  A
C1937      C1940   1.451       .  S
C1938      C1942   1.451       .  S
C1939      N1946   1.157       .  T
C1940      N1947   1.157       .  T
C1941      N1945   1.157       .  T
C1942      N1948   1.157       .  T
C1943      N1952   1.157       .  T
C1944      N1950   1.157       .  T
C1953      C1954   1.411       .  A
C1953      C1958   1.410       .  A
C1953      C1971   1.452       .  S
C1954      C1959   1.496       .  S
C1954      C1955   1.408       .  A
C1955      C1956   1.412       .  A
C1955      C1960   1.451       .  S
C1956      C1957   1.421       .  A
C1956      C1972   1.451       .  S
C1957      C1958   1.417       .  A
C1958      C1961   1.452       .  S
C1959      C1962   1.409       .  A
C1959      C1966   1.408       .  A
C1960      N1977   1.157       .  T
C1961      N1979   1.157       .  T
C1962      C1963   1.412       .  A
C1962      C1967   1.451       .  S
C1963      C1964   1.416       .  A
C1963      C1969   1.448       .  S
C1964      C1965   1.419       .  A
C1965      C1966   1.409       .  A
C1965      C1968   1.452       .  S
C1966      C1970   1.451       .  S
C1967      N1974   1.157       .  T
C1968      N1975   1.157       .  T
C1969      N1973   1.157       .  T
C1970      N1976   1.157       .  T
C1971      N1980   1.157       .  T
C1972      N1978   1.158       .  T
C1981      C1982   1.402       .  A
C1981      C1986   1.407       .  A
C1981      C1999   1.453       .  S
C1982      C1987   1.491       .  S
C1982      C1983   1.403       .  A
C1983      C1984   1.414       .  A
C1983      C1988   1.454       .  S
C1984      C1985   1.431       .  A
C1984      C2000   1.445       .  S
C1985      C1986   1.433       .  A
C1986      C1989   1.455       .  S
C1987      C1990   1.408       .  A
C1987      C1994   1.408       .  A
C1988      N2005   1.157       .  T
C1989      N2007   1.158       .  T
C1990      C1991   1.409       .  A
C1990      C1995   1.451       .  S
C1991      C1992   1.419       .  A
C1991      C1997   1.452       .  S
C1992      C1993   1.417       .  A
C1993      C1994   1.408       .  A
C1993      C1996   1.451       .  S
C1994      C1998   1.451       .  S
C1995      N2002   1.157       .  T
C1996      N2003   1.157       .  T
C1997      N2001   1.157       .  T
C1998      N2004   1.157       .  T
C1999      N2008   1.157       .  T
C2000      N2006   1.157       .  T
C2009      C2010   1.411       .  A
C2009      C2014   1.407       .  A
C2009      C2027   1.452       .  S
C2010      C2015   1.503       .  S
C2010      C2011   1.415       .  A
C2011      C2012   1.417       .  A
C2011      C2016   1.449       .  S
C2012      C2013   1.410       .  A
C2012      C2028   1.449       .  S
C2013      C2014   1.416       .  A
C2014      C2017   1.451       .  S
C2015      C2018   1.412       .  A
C2015      C2022   1.410       .  A
C2016      N2033   1.157       .  T
C2017      N2035   1.157       .  T
C2018      C2019   1.415       .  A
C2018      C2023   1.451       .  S
C2019      C2020   1.420       .  A
C2019      C2025   1.451       .  S
C2020      C2021   1.421       .  A
C2021      C2022   1.412       .  A
C2021      C2024   1.452       .  S
C2022      C2026   1.451       .  S
C2023      N2030   1.157       .  T
C2024      N2031   1.157       .  T
C2025      N2029   1.158       .  T
C2026      N2032   1.157       .  T
C2027      N2036   1.157       .  T
C2028      N2034   1.157       .  T
C2037      C2038   1.414       .  A
C2037      C2042   1.417       .  A
C2037      C2055   1.450       .  S
C2038      C2043   1.512       .  S
C2038      C2039   1.415       .  A
C2039      C2040   1.414       .  A
C2039      C2044   1.451       .  S
C2040      C2041   1.414       .  A
C2040      C2056   1.451       .  S
C2041      C2042   1.417       .  A
C2042      C2045   1.450       .  S
C2043      C2046   1.413       .  A
C2043      C2050   1.413       .  A
C2044      N2061   1.157       .  T
C2045      N2063   1.157       .  T
C2046      C2047   1.415       .  A
C2046      C2051   1.450       .  S
C2047      C2048   1.420       .  A
C2047      C2053   1.452       .  S
C2048      C2049   1.416       .  A
C2049      C2050   1.416       .  A
C2049      C2052   1.447       .  S
C2050      C2054   1.451       .  S
C2051      N2058   1.157       .  T
C2052      N2059   1.157       .  T
C2053      N2057   1.157       .  T
C2054      N2060   1.157       .  T
C2055      N2064   1.157       .  T
C2056      N2062   1.157       .  T
C2065      C2066   1.405       .  A
C2065      C2070   1.410       .  A
C2065      C2083   1.452       .  S
C2066      C2071   1.494       .  S
C2066      C2067   1.407       .  A
C2067      C2068   1.413       .  A
C2067      C2072   1.451       .  S
C2068      C2069   1.425       .  A
C2068      C2084   1.450       .  S
C2069      C2070   1.425       .  A
C2070      C2073   1.448       .  S
C2071      C2074   1.411       .  A
C2071      C2078   1.410       .  A
C2072      N2089   1.157       .  T
C2073      N2091   1.157       .  T
C2074      C2075   1.410       .  A
C2074      C2079   1.451       .  S
C2075      C2076   1.414       .  A
C2075      C2081   1.452       .  S
C2076      C2077   1.414       .  A
C2077      C2078   1.410       .  A
C2077      C2080   1.451       .  S
C2078      C2082   1.450       .  S
C2079      N2086   1.157       .  T
C2080      N2087   1.157       .  T
C2081      N2085   1.157       .  T
C2082      N2088   1.157       .  T
C2083      N2092   1.157       .  T
C2084      N2090   1.157       .  T
C2093      C2094   1.412       .  A
C2093      C2098   1.413       .  A
C2093      C2111   1.451       .  S
C2094      C2099   1.502       .  S
C2094      C2095   1.411       .  A
C2095      C2096   1.413       .  A
C2095      C2100   1.451       .  S
C2096      C2097   1.417       .  A
C2096      C2112   1.451       .  S
C2097      C2098   1.416       .  A
C2098      C2101   1.451       .  S
C2099      C2102   1.411       .  A
C2099      C2106   1.409       .  A
C2100      N2117   1.157       .  T
C2101      N2119   1.157       .  T
C2102      C2103   1.415       .  A
C2102      C2107   1.450       .  S
C2103      C2104   1.421       .  A
C2103      C2109   1.450       .  S
C2104      C2105   1.423       .  A
C2105      C2106   1.411       .  A
C2105      C2108   1.451       .  S
C2106      C2110   1.451       .  S
C2107      N2114   1.157       .  T
C2108      N2115   1.157       .  T
C2109      N2113   1.157       .  T
C2110      N2116   1.157       .  T
C2111      N2120   1.157       .  T
C2112      N2118   1.157       .  T
C2121      C2122   1.409       .  A
C2121      C2126   1.414       .  A
C2121      C2139   1.451       .  S
C2122      C2127   1.500       .  S
C2122      C2123   1.407   1_554  A
C2123      C2124   1.411       .  A
C2123      C2128   1.451       .  S
C2124      C2125   1.422       .  A
C2124      C2140   1.452       .  S
C2125      C2126   1.421   1_556  A
C2126      C2129   1.447       .  S
C2127      C2130   1.411       .  A
C2127      C2134   1.408       .  A
C2128      N2145   1.157       .  T
C2129      N2147   1.157       .  T
C2130      C2131   1.414       .  A
C2130      C2135   1.451       .  S
C2131      C2132   1.418       .  A
C2131      C2137   1.450       .  S
C2132      C2133   1.423       .  A
C2133      C2134   1.411       .  A
C2133      C2136   1.452       .  S
C2134      C2138   1.451       .  S
C2135      N2142   1.157   1_554  T
C2136      N2143   1.157   1_565  T
C2137      N2141   1.157       .  T
C2138      N2144   1.157       .  T
C2139      N2148   1.157       .  T
C2140      N2146   1.157       .  T
C2149      C2150   1.408   1_556  A
C2149      C2154   1.413       .  A
C2149      C2167   1.451       .  S
C2150      C2155   1.505       .  S
C2150      C2151   1.409       .  A
C2151      C2152   1.417       .  A
C2151      C2156   1.452       .  S
C2152      C2153   1.424   1_554  A
C2152      C2168   1.447       .  S
C2153      C2154   1.425       .  A
C2154      C2157   1.451       .  S
C2155      C2158   1.412       .  A
C2155      C2162   1.413       .  A
C2156      N2173   1.157       .  T
C2157      N2175   1.157       .  T
C2158      C2159   1.412       .  A
C2158      C2163   1.451       .  S
C2159      C2160   1.414       .  A
C2159      C2165   1.449       .  S
C2160      C2161   1.416       .  A
C2161      C2162   1.416       .  A
C2161      C2164   1.450   1_554  S
C2162      C2166   1.450   1_554  S
C2163      N2170   1.157       .  T
C2164      N2171   1.157   1_565  T
C2165      N2169   1.157       .  T
C2166      N2172   1.157       .  T
C2167      N2176   1.157       .  T
C2168      N2174   1.158       .  T
C2177      C2178   1.411       .  A
C2177      C2182   1.414       .  A
C2177      C2195   1.451       .  S
C2178      C2183   1.501       .  S
C2178      C2179   1.411       .  A
C2179      C2180   1.413       .  A
C2179      C2184   1.450       .  S
C2180      C2181   1.416       .  A
C2180      C2196   1.451       .  S
C2181      C2182   1.416       .  A
C2182      C2185   1.451       .  S
C2183      C2186   1.412       .  A
C2183      C2190   1.412       .  A
C2184      N2201   1.157       .  T
C2185      N2203   1.157       .  T
C2186      C2187   1.413       .  A
C2186      C2191   1.450       .  S
C2187      C2188   1.413       .  A
C2187      C2193   1.451       .  S
C2188      C2189   1.411       .  A
C2189      C2190   1.412       .  A
C2189      C2192   1.451       .  S
C2190      C2194   1.450       .  S
C2191      N2198   1.157       .  T
C2192      N2199   1.157       .  T
C2193      N2197   1.157       .  T
C2194      N2200   1.157       .  T
C2195      N2204   1.157       .  T
C2196      N2202   1.157       .  T
C2205      C2206   1.411       .  A
C2205      C2210   1.414       .  A
C2205      C2223   1.450       .  S
C2206      C2211   1.500       .  S
C2206      C2207   1.409       .  A
C2207      C2208   1.411       .  A
C2207      C2212   1.450       .  S
C2208      C2209   1.414       .  A
C2208      C2224   1.447       .  S
C2209      C2210   1.416       .  A
C2210      C2213   1.446       .  S
C2211      C2214   1.410       .  A
C2211      C2218   1.413       .  A
C2212      N2229   1.157       .  T
C2213      N2231   1.158       .  T
C2214      C2215   1.411       .  A
C2214      C2219   1.450       .  S
C2215      C2216   1.413       .  A
C2215      C2221   1.450       .  S
C2216      C2217   1.411       .  A
C2217      C2218   1.414       .  A
C2217      C2220   1.450       .  S
C2218      C2222   1.450       .  S
C2219      N2226   1.157       .  T
C2220      N2227   1.157       .  T
C2221      N2225   1.157       .  T
C2222      N2228   1.157       .  T
C2223      N2232   1.157       .  T
C2224      N2230   1.157       .  T
C2233      C2234   1.409       .  A
C2233      C2238   1.409       .  A
C2233      C2251   1.451       .  S
C2234      C2239   1.495       .  S
C2234      C2235   1.411       .  A
C2235      C2236   1.411       .  A
C2235      C2240   1.451       .  S
C2236      C2237   1.416       .  A
C2236      C2252   1.451       .  S
C2237      C2238   1.416       .  A
C2238      C2241   1.451       .  S
C2239      C2242   1.406       .  A
C2239      C2246   1.403       .  A
C2240      N2257   1.157       .  T
C2241      N2259   1.157       .  T
C2242      C2243   1.416       .  A
C2242      C2247   1.452       .  S
C2243      C2244   1.428       .  A
C2243      C2249   1.448       .  S
C2244      C2245   1.432       .  A
C2245      C2246   1.407       .  A
C2245      C2248   1.454       .  S
C2246      C2250   1.453       .  S
C2247      N2254   1.157       .  T
C2248      N2255   1.158       .  T
C2249      N2253   1.158       .  T
C2250      N2256   1.157       .  T
C2251      N2260   1.157       .  T
C2252      N2258   1.157       .  T
C2261      C2262   1.411       .  A
C2261      C2266   1.415       .  A
C2261      C2279   1.451       .  S
C2262      C2267   1.502       .  S
C2262      C2263   1.409       .  A
C2263      C2264   1.414       .  A
C2263      C2268   1.451       .  S
C2264      C2265   1.420       .  A
C2264      C2280   1.451       .  S
C2265      C2266   1.420       .  A
C2266      C2269   1.451       .  S
C2267      C2270   1.414       .  A
C2267      C2274   1.410       .  A
C2268      N2285   1.157       .  T
C2269      N2287   1.158       .  T
C2270      C2271   1.417       .  A
C2270      C2275   1.449       .  S
C2271      C2272   1.411       .  A
C2271      C2277   1.449       .  S
C2272      C2273   1.416       .  A
C2273      C2274   1.409       .  A
C2273      C2276   1.452       .  S
C2274      C2278   1.451       .  S
C2275      N2282   1.157       .  T
C2276      N2283   1.157       .  T
C2277      N2281   1.157       .  T
C2278      N2284   1.157       .  T
C2279      N2288   1.157       .  T
C2280      N2286   1.157       .  T
C2289      C2290   1.406   1_455  A
C2289      C2294   1.409       .  A
C2289      C2307   1.451       .  S
C2290      C2295   1.495       .  S
C2290      C2291   1.406       .  A
C2291      C2292   1.413       .  A
C2291      C2296   1.452       .  S
C2292      C2293   1.427       .  A
C2292      C2308   1.450       .  S
C2293      C2294   1.424   1_655  A
C2294      C2297   1.450       .  S
C2295      C2298   1.411       .  A
C2295      C2302   1.409       .  A
C2296      N2313   1.157       .  T
C2297      N2315   1.157       .  T
C2298      C2299   1.412       .  A
C2298      C2303   1.450       .  S
C2299      C2300   1.415       .  A
C2299      C2305   1.451       .  S
C2300      C2301   1.417       .  A
C2301      C2302   1.409       .  A
C2301      C2304   1.452       .  S
C2302      C2306   1.451       .  S
C2303      N2310   1.157       .  T
C2304      N2311   1.157   1_554  T
C2305      N2309   1.157       .  T
C2306      N2312   1.157   1_655  T
C2307      N2316   1.157       .  T
C2308      N2314   1.157       .  T
C2317      C2318   1.407   1_655  A
C2317      C2322   1.412       .  A
C2317      C2335   1.452       .  S
C2318      C2323   1.498       .  S
C2318      C2319   1.407       .  A
C2319      C2320   1.411       .  A
C2319      C2324   1.453       .  S
C2320      C2321   1.421       .  A
C2320      C2336   1.447       .  S
C2321      C2322   1.423   1_455  A
C2322      C2325   1.449       .  S
C2323      C2326   1.412   1_455  A
C2323      C2330   1.411       .  A
C2324      N2341   1.157       .  T
C2325      N2343   1.156       .  T
C2326      C2327   1.409       .  A
C2326      C2331   1.451       .  S
C2327      C2328   1.415   1_655  A
C2327      C2333   1.451       .  S
C2328      C2329   1.416       .  A
C2329      C2330   1.412       .  A
C2329      C2332   1.451       .  S
C2330      C2334   1.450       .  S
C2331      N2338   1.157       .  T
C2332      N2339   1.157       .  T
C2333      N2337   1.157       .  T
C2334      N2340   1.157       .  T
C2335      N2344   1.157       .  T
C2336      N2342   1.157       .  T
C2345      C2346   1.409       .  A
C2345      C2350   1.415       .  A
C2345      C2363   1.451       .  S
C2346      C2351   1.498       .  S
C2346      C2347   1.408       .  A
C2347      C2348   1.410       .  A
C2347      C2352   1.451       .  S
C2348      C2349   1.419       .  A
C2348      C2364   1.451       .  S
C2349      C2350   1.419       .  A
C2350      C2353   1.447       .  S
C2351      C2354   1.411       .  A
C2351      C2358   1.409       .  A
C2352      N2369   1.157       .  T
C2353      N2371   1.157       .  T
C2354      C2355   1.412       .  A
C2354      C2359   1.451       .  S
C2355      C2356   1.416       .  A
C2355      C2361   1.451       .  S
C2356      C2357   1.419       .  A
C2357      C2358   1.412       .  A
C2357      C2360   1.451       .  S
C2358      C2362   1.450       .  S
C2359      N2366   1.157       .  T
C2360      N2367   1.158       .  T
C2361      N2365   1.157       .  T
C2362      N2368   1.157       .  T
C2363      N2372   1.157       .  T
C2364      N2370   1.157       .  T
C2373      C2374   1.408       .  A
C2373      C2378   1.411       .  A
C2373      C2391   1.450       .  S
C2374      C2379   1.496       .  S
C2374      C2375   1.407       .  A
C2375      C2376   1.411       .  A
C2375      C2380   1.451       .  S
C2376      C2377   1.424       .  A
C2376      C2392   1.450       .  S
C2377      C2378   1.423       .  A
C2378      C2381   1.451       .  S
C2379      C2382   1.411       .  A
C2379      C2386   1.410       .  A
C2380      N2397   1.157       .  T
C2381      N2399   1.157       .  T
C2382      C2383   1.411       .  A
C2382      C2387   1.451       .  S
C2383      C2384   1.413       .  A
C2383      C2389   1.450       .  S
C2384      C2385   1.415       .  A
C2385      C2386   1.411       .  A
C2385      C2388   1.451       .  S
C2386      C2390   1.450       .  S
C2387      N2394   1.157       .  T
C2388      N2395   1.157       .  T
C2389      N2393   1.157       .  T
C2390      N2396   1.157       .  T
C2391      N2400   1.157       .  T
C2392      N2398   1.158       .  T
C2401      C2402   1.412       .  A
C2401      C2406   1.412       .  A
C2401      C2419   1.450       .  S
C2402      C2407   1.501       .  S
C2402      C2403   1.412       .  A
C2403      C2404   1.412       .  A
C2403      C2408   1.450       .  S
C2404      C2405   1.413       .  A
C2404      C2420   1.451       .  S
C2405      C2406   1.412       .  A
C2406      C2409   1.450       .  S
C2407      C2410   1.410       .  A
C2407      C2414   1.411       .  A
C2408      N2425   1.157       .  T
C2409      N2427   1.157       .  T
C2410      C2411   1.413       .  A
C2410      C2415   1.451       .  S
C2411      C2412   1.419       .  A
C2411      C2417   1.451       .  S
C2412      C2413   1.417       .  A
C2413      C2414   1.414       .  A
C2413      C2416   1.451       .  S
C2414      C2418   1.450       .  S
C2415      N2422   1.157       .  T
C2416      N2423   1.157       .  T
C2417      N2421   1.157       .  T
C2418      N2424   1.157       .  T
C2419      N2428   1.157       .  T
C2420      N2426   1.157       .  T
C2429      C2430   1.414       .  A
C2429      C2434   1.413       .  A
C2429      C2447   1.451       .  S
C2430      C2435   1.507       .  S
C2430      C2431   1.414       .  A
C2431      C2432   1.415       .  A
C2431      C2436   1.450       .  S
C2432      C2433   1.414       .  A
C2432      C2448   1.450       .  S
C2433      C2434   1.415       .  A
C2434      C2437   1.451       .  S
C2435      C2438   1.408       .  A
C2435      C2442   1.411       .  A
C2436      N2453   1.157       .  T
C2437      N2455   1.157       .  T
C2438      C2439   1.412       .  A
C2438      C2443   1.451       .  S
C2439      C2440   1.425       .  A
C2439      C2445   1.452       .  S
C2440      C2441   1.423       .  A
C2441      C2442   1.418       .  A
C2441      C2444   1.447       .  S
C2442      C2446   1.452       .  S
C2443      N2450   1.157       .  T
C2444      N2451   1.158       .  T
C2445      N2449   1.157       .  T
C2446      N2452   1.157       .  T
C2447      N2456   1.157       .  T
C2448      N2454   1.157       .  T
C2457      C2458   1.406       .  A
C2457      C2462   1.412       .  A
C2457      C2475   1.453       .  S
C2458      C2463   1.491       .  S
C2458      C2459   1.404       .  A
C2459      C2460   1.408       .  A
C2459      C2464   1.452       .  S
C2460      C2461   1.424       .  A
C2460      C2476   1.449       .  S
C2461      C2462   1.422       .  A
C2462      C2465   1.448       .  S
C2463      C2466   1.411       .  A
C2463      C2470   1.409       .  A
C2464      N2481   1.157       .  T
C2465      N2483   1.157       .  T
C2466      C2467   1.410       .  A
C2466      C2471   1.450       .  S
C2467      C2468   1.412       .  A
C2467      C2473   1.450       .  S
C2468      C2469   1.414       .  A
C2469      C2470   1.406       .  A
C2469      C2472   1.452       .  S
C2470      C2474   1.451       .  S
C2471      N2478   1.157       .  T
C2472      N2479   1.157       .  T
C2473      N2477   1.157       .  T
C2474      N2480   1.157       .  T
C2475      N2484   1.157       .  T
C2476      N2482   1.156       .  T
C2485      C2486   1.404       .  A
C2485      C2490   1.411       .  A
C2485      C2503   1.452       .  S
C2486      C2491   1.493       .  S
C2486      C2487   1.405       .  A
C2487      C2488   1.410       .  A
C2487      C2492   1.452       .  S
C2488      C2489   1.429       .  A
C2488      C2504   1.451       .  S
C2489      C2490   1.427       .  A
C2490      C2493   1.448       .  S
C2491      C2494   1.410       .  A
C2491      C2498   1.410       .  A
C2492      N2509   1.157       .  T
C2493      N2511   1.157       .  T
C2494      C2495   1.411       .  A
C2494      C2499   1.450       .  S
C2495      C2496   1.415       .  A
C2495      C2501   1.451       .  S
C2496      C2497   1.414       .  A
C2497      C2498   1.408       .  A
C2497      C2500   1.451       .  S
C2498      C2502   1.452       .  S
C2499      N2506   1.157       .  T
C2500      N2507   1.157       .  T
C2501      N2505   1.157       .  T
C2502      N2508   1.157       .  T
C2503      N2512   1.157       .  T
C2504      N2510   1.157       .  T
C2513      C2514   1.411       .  A
C2513      C2518   1.411       .  A
C2513      C2531   1.453       .  S
C2514      C2519   1.502       .  S
C2514      C2515   1.411       .  A
C2515      C2516   1.413       .  A
C2515      C2520   1.450       .  S
C2516      C2517   1.417       .  A
C2516      C2532   1.451       .  S
C2517      C2518   1.414       .  A
C2518      C2521   1.446       .  S
C2519      C2522   1.411       .  A
C2519      C2526   1.414       .  A
C2520      N2537   1.157       .  T
C2521      N2539   1.156       .  T
C2522      C2523   1.410       .  A
C2522      C2527   1.451       .  S
C2523      C2524   1.414       .  A
C2523      C2529   1.451       .  S
C2524      C2525   1.413       .  A
C2525      C2526   1.414       .  A
C2525      C2528   1.450       .  S
C2526      C2530   1.451       .  S
C2527      N2534   1.157       .  T
C2528      N2535   1.157       .  T
C2529      N2533   1.157       .  T
C2530      N2536   1.157       .  T
C2531      N2540   1.157       .  T
C2532      N2538   1.157       .  T
C2541      C2542   1.409       .  A
C2541      C2546   1.409       .  A
C2541      C2559   1.451       .  S
C2542      C2547   1.500       .  S
C2542      C2543   1.411       .  A
C2543      C2544   1.416       .  A
C2543      C2548   1.450       .  S
C2544      C2545   1.416       .  A
C2544      C2560   1.448       .  S
C2545      C2546   1.417       .  A
C2546      C2549   1.451       .  S
C2547      C2550   1.412       .  A
C2547      C2554   1.409       .  A
C2548      N2565   1.157       .  T
C2549      N2567   1.157       .  T
C2550      C2551   1.412       .  A
C2550      C2555   1.451       .  S
C2551      C2552   1.416       .  A
C2551      C2557   1.451       .  S
C2552      C2553   1.419       .  A
C2553      C2554   1.414       .  A
C2553      C2556   1.451       .  S
C2554      C2558   1.450       .  S
C2555      N2562   1.157       .  T
C2556      N2563   1.157       .  T
C2557      N2561   1.158       .  T
C2558      N2564   1.157       .  T
C2559      N2568   1.157       .  T
C2560      N2566   1.157       .  T
C2569      C2570   1.407       .  A
C2569      C2574   1.411       .  A
C2569      C2587   1.450       .  S
C2570      C2575   1.492       .  S
C2570      C2571   1.405       .  A
C2571      C2572   1.408       .  A
C2571      C2576   1.453       .  S
C2572      C2573   1.425       .  A
C2572      C2588   1.448       .  S
C2573      C2574   1.424       .  A
C2574      C2577   1.450       .  S
C2575      C2578   1.411       .  A
C2575      C2582   1.409       .  A
C2576      N2593   1.157       .  T
C2577      N2595   1.157       .  T
C2578      C2579   1.409       .  A
C2578      C2583   1.451       .  S
C2579      C2580   1.413       .  A
C2579      C2585   1.451       .  S
C2580      C2581   1.416       .  A
C2581      C2582   1.408       .  A
C2581      C2584   1.452       .  S
C2582      C2586   1.451       .  S
C2583      N2590   1.157       .  T
C2584      N2591   1.157       .  T
C2585      N2589   1.157       .  T
C2586      N2592   1.157       .  T
C2587      N2596   1.157       .  T
C2588      N2594   1.156       .  T
C2597      C2598   1.409       .  A
C2597      C2602   1.409       .  A
C2597      C2615   1.454       .  S
C2598      C2603   1.499       .  S
C2598      C2599   1.410       .  A
C2599      C2600   1.412       .  A
C2599      C2604   1.451       .  S
C2600      C2601   1.420       .  A
C2600      C2616   1.451       .  S
C2601      C2602   1.420       .  A
C2602      C2605   1.447       .  S
C2603      C2606   1.410       .  A
C2603      C2610   1.411       .  A
C2604      N2621   1.157       .  T
C2605      N2623   1.157       .  T
C2606      C2607   1.408       .  A
C2606      C2611   1.452       .  S
C2607      C2608   1.420       .  A
C2607      C2613   1.452       .  S
C2608      C2609   1.422       .  A
C2609      C2610   1.413       .  A
C2609      C2612   1.451       .  S
C2610      C2614   1.452       .  S
C2611      N2618   1.157       .  T
C2612      N2619   1.158       .  T
C2613      N2617   1.157       .  T
C2614      N2620   1.157       .  T
C2615      N2624   1.157       .  T
C2616      N2622   1.157       .  T
C2625      C2626   1.408       .  A
C2625      C2630   1.416       .  A
C2625      C2643   1.451       .  S
C2626      C2631   1.506       .  S
C2626      C2627   1.406       .  A
C2627      C2628   1.414       .  A
C2627      C2632   1.454       .  S
C2628      C2629   1.430       .  A
C2628      C2644   1.447       .  S
C2629      C2630   1.429       .  A
C2630      C2633   1.450       .  S
C2631      C2634   1.410       .  A
C2631      C2638   1.412       .  A
C2632      N2649   1.157       .  T
C2633      N2651   1.158       .  T
C2634      C2635   1.412       .  A
C2634      C2639   1.452       .  S
C2635      C2636   1.423       .  A
C2635      C2641   1.451       .  S
C2636      C2637   1.421       .  A
C2637      C2638   1.416       .  A
C2637      C2640   1.451       .  S
C2638      C2642   1.451       .  S
C2639      N2646   1.157       .  T
C2640      N2647   1.157       .  T
C2641      N2645   1.157       .  T
C2642      N2648   1.157       .  T
C2643      N2652   1.157       .  T
C2644      N2650   1.156       .  T
C2653      C2654   1.413       .  A
C2653      C2658   1.413       .  A
C2653      C2671   1.450       .  S
C2654      C2659   1.502       .  S
C2654      C2655   1.411       .  A
C2655      C2656   1.412       .  A
C2655      C2660   1.450       .  S
C2656      C2657   1.412       .  A
C2656      C2672   1.450       .  S
C2657      C2658   1.412       .  A
C2658      C2661   1.451       .  S
C2659      C2662   1.411       .  A
C2659      C2666   1.412       .  A
C2660      N2677   1.157       .  T
C2661      N2679   1.157       .  T
C2662      C2663   1.413       .  A
C2662      C2667   1.451       .  S
C2663      C2664   1.417       .  A
C2663      C2669   1.451       .  S
C2664      C2665   1.416       .  A
C2665      C2666   1.414       .  A
C2665      C2668   1.451       .  S
C2666      C2670   1.450       .  S
C2667      N2674   1.157       .  T
C2668      N2675   1.157       .  T
C2669      N2673   1.157       .  T
C2670      N2676   1.157       .  T
C2671      N2680   1.157       .  T
C2672      N2678   1.157       .  T
C2681      C2682   1.408       .  A
C2681      C2686   1.417       .  A
C2681      C2699   1.452       .  S
C2682      C2687   1.502       .  S
C2682      C2683   1.406       .  A
C2683      C2684   1.411       .  A
C2683      C2688   1.452       .  S
C2684      C2685   1.425       .  A
C2684      C2700   1.451       .  S
C2685      C2686   1.426       .  A
C2686      C2689   1.447       .  S
C2687      C2690   1.412       .  A
C2687      C2694   1.412       .  A
C2688      N2705   1.157       .  T
C2689      N2707   1.158       .  T
C2690      C2691   1.413       .  A
C2690      C2695   1.450       .  S
C2691      C2692   1.414       .  A
C2691      C2697   1.451       .  S
C2692      C2693   1.414       .  A
C2693      C2694   1.413       .  A
C2693      C2696   1.451       .  S
C2694      C2698   1.451       .  S
C2695      N2702   1.157       .  T
C2696      N2703   1.157       .  T
C2697      N2701   1.157       .  T
C2698      N2704   1.157       .  T
C2699      N2708   1.157       .  T
C2700      N2706   1.157       .  T
C2709      C2710   1.409       .  A
C2709      C2714   1.409       .  A
C2709      C2727   1.450       .  S
C2710      C2715   1.497       .  S
C2710      C2711   1.410       .  A
C2711      C2712   1.414       .  A
C2711      C2716   1.450       .  S
C2712      C2713   1.414       .  A
C2712      C2728   1.445       .  S
C2713      C2714   1.412       .  A
C2714      C2717   1.447       .  S
C2715      C2718   1.409       .  A
C2715      C2722   1.410       .  A
C2716      N2733   1.157       .  T
C2717      N2735   1.157       .  T
C2718      C2719   1.413       .  A
C2718      C2723   1.451       .  S
C2719      C2720   1.420       .  A
C2719      C2725   1.451       .  S
C2720      C2721   1.417       .  A
C2721      C2722   1.411       .  A
C2721      C2724   1.452       .  S
C2722      C2726   1.451       .  S
C2723      N2730   1.157       .  T
C2724      N2731   1.158       .  T
C2725      N2729   1.158       .  T
C2726      N2732   1.157       .  T
C2727      N2736   1.157       .  T
C2728      N2734   1.157       .  T
C2737      C2738   1.410       .  A
C2737      C2742   1.413       .  A
C2737      C2755   1.451       .  S
C2738      C2743   1.506       .  S
C2738      C2739   1.413       .  A
C2739      C2740   1.417       .  A
C2739      C2744   1.450       .  S
C2740      C2741   1.417       .  A
C2740      C2756   1.450       .  S
C2741      C2742   1.418       .  A
C2742      C2745   1.451       .  S
C2743      C2746   1.412       .  A
C2743      C2750   1.412       .  A
C2744      N2761   1.157       .  T
C2745      N2763   1.157       .  T
C2746      C2747   1.416       .  A
C2746      C2751   1.450       .  S
C2747      C2748   1.414       .  A
C2747      C2753   1.450       .  S
C2748      C2749   1.415       .  A
C2749      C2750   1.413       .  A
C2749      C2752   1.451       .  S
C2750      C2754   1.450       .  S
C2751      N2758   1.157       .  T
C2752      N2759   1.157       .  T
C2753      N2757   1.157       .  T
C2754      N2760   1.157       .  T
C2755      N2764   1.157       .  T
C2756      N2762   1.157       .  T
C2765      C2766   1.410       .  A
C2765      C2770   1.416       .  A
C2765      C2783   1.450       .  S
C2766      C2771   1.507       .  S
C2766      C2767   1.412       .  A
C2767      C2768   1.416       .  A
C2767      C2772   1.451       .  S
C2768      C2769   1.418       .  A
C2768      C2784   1.451       .  S
C2769      C2770   1.421       .  A
C2770      C2773   1.451       .  S
C2771      C2774   1.406       .  A
C2771      C2778   1.409   1_556  A
C2772      N2789   1.157       .  T
C2773      N2791   1.157   1_545  T
C2774      C2775   1.414       .  A
C2774      C2779   1.452       .  S
C2775      C2776   1.428       .  A
C2775      C2781   1.451       .  S
C2776      C2777   1.424   1_556  A
C2777      C2778   1.420       .  A
C2777      C2780   1.447       .  S
C2778      C2782   1.450       .  S
C2779      N2786   1.157       .  T
C2780      N2787   1.158       .  T
C2781      N2785   1.157       .  T
C2782      N2788   1.157       .  T
C2783      N2792   1.157       .  T
C2784      N2790   1.157       .  T
C2793      C2794   1.412   1_554  A
C2793      C2798   1.417       .  A
C2793      C2811   1.451       .  S
C2794      C2799   1.506       .  S
C2794      C2795   1.409       .  A
C2795      C2796   1.413       .  A
C2795      C2800   1.451       .  S
C2796      C2797   1.420       .  A
C2796      C2812   1.450       .  S
C2797      C2798   1.417   1_556  A
C2798      C2801   1.447       .  S
C2799      C2802   1.412   1_556  A
C2799      C2806   1.413       .  A
C2800      N2817   1.157       .  T
C2801      N2819   1.157       .  T
C2802      C2803   1.415       .  A
C2802      C2807   1.450       .  S
C2803      C2804   1.416       .  A
C2803      C2809   1.451       .  S
C2804      C2805   1.415   1_554  A
C2805      C2806   1.414       .  A
C2805      C2808   1.451       .  S
C2806      C2810   1.451       .  S
C2807      N2814   1.157       .  T
C2808      N2815   1.157       .  T
C2809      N2813   1.157   1_545  T
C2810      N2816   1.157       .  T
C2811      N2820   1.157       .  T
C2812      N2818   1.157       .  T
C2821      C2822   1.406       .  A
C2821      C2826   1.415       .  A
C2821      C2839   1.451       .  S
C2822      C2827   1.501       .  S
C2822      C2823   1.403       .  A
C2823      C2824   1.411       .  A
C2823      C2828   1.455       .  S
C2824      C2825   1.435       .  A
C2824      C2840   1.448       .  S
C2825      C2826   1.431       .  A
C2826      C2829   1.452       .  S
C2827      C2830   1.409       .  A
C2827      C2834   1.414       .  A
C2828      N2845   1.157       .  T
C2829      N2847   1.158       .  T
C2830      C2831   1.413       .  A
C2830      C2835   1.451       .  S
C2831      C2832   1.419       .  A
C2831      C2837   1.451       .  S
C2832      C2833   1.416       .  A
C2833      C2834   1.411       .  A
C2833      C2836   1.452       .  S
C2834      C2838   1.452       .  S
C2835      N2842   1.157       .  T
C2836      N2843   1.157       .  T
C2837      N2841   1.157       .  T
C2838      N2844   1.157       .  T
C2839      N2848   1.157       .  T
C2840      N2846   1.158       .  T
C2849      C2850   1.413       .  A
C2849      C2854   1.412       .  A
C2849      C2867   1.449       .  S
C2850      C2855   1.503       .  S
C2850      C2851   1.413       .  A
C2851      C2852   1.413       .  A
C2851      C2856   1.450       .  S
C2852      C2853   1.413       .  A
C2852      C2868   1.451       .  S
C2853      C2854   1.409       .  A
C2854      C2857   1.449       .  S
C2855      C2858   1.412       .  A
C2855      C2862   1.411       .  A
C2856      N2873   1.157       .  T
C2857      N2875   1.157       .  T
C2858      C2859   1.413       .  A
C2858      C2863   1.450       .  S
C2859      C2860   1.417       .  A
C2859      C2865   1.452       .  S
C2860      C2861   1.419       .  A
C2861      C2862   1.413       .  A
C2861      C2864   1.452       .  S
C2862      C2866   1.451       .  S
C2863      N2870   1.157       .  T
C2864      N2871   1.158       .  T
C2865      N2869   1.158       .  T
C2866      N2872   1.157       .  T
C2867      N2876   1.157       .  T
C2868      N2874   1.157       .  T
C2877      C2878   1.410       .  A
C2877      C2882   1.419       .  A
C2877      C2895   1.451       .  S
C2878      C2883   1.503       .  S
C2878      C2879   1.406   1_545  A
C2879      C2880   1.410       .  A
C2879      C2884   1.452       .  S
C2880      C2881   1.425   1_565  A
C2880      C2896   1.451       .  S
C2881      C2882   1.422       .  A
C2882      C2885   1.446       .  S
C2883      C2886   1.413   1_545  A
C2883      C2890   1.410       .  A
C2884      N2901   1.157       .  T
C2885      N2903   1.158       .  T
C2886      C2887   1.415       .  A
C2886      C2891   1.450       .  S
C2887      C2888   1.414       .  A
C2887      C2893   1.450       .  S
C2888      C2889   1.417   1_565  A
C2889      C2890   1.413       .  A
C2889      C2892   1.451       .  S
C2890      C2894   1.451       .  S
C2891      N2898   1.157       .  T
C2892      N2899   1.157   1_455  T
C2893      N2897   1.157       .  T
C2894      N2900   1.157       .  T
C2895      N2904   1.157       .  T
C2896      N2902   1.157       .  T
C2905      C2906   1.411       .  A
C2905      C2910   1.415       .  A
C2905      C2923   1.449       .  S
C2906      C2911   1.497       .  S
C2906      C2907   1.408       .  A
C2907      C2908   1.407   1_545  A
C2907      C2912   1.451   1_545  S
C2908      C2909   1.414   1_565  A
C2908      C2924   1.448       .  S
C2909      C2910   1.412       .  A
C2910      C2913   1.444       .  S
C2911      C2914   1.408       .  A
C2911      C2918   1.411       .  A
C2912      N2929   1.157       .  T
C2913      N2931   1.156       .  T
C2914      C2915   1.410       .  A
C2914      C2919   1.451       .  S
C2915      C2916   1.421       .  A
C2915      C2921   1.452       .  S
C2916      C2917   1.417       .  A
C2917      C2918   1.413       .  A
C2917      C2920   1.451       .  S
C2918      C2922   1.451       .  S
C2919      N2926   1.157       .  T
C2920      N2927   1.158   1_545  T
C2921      N2925   1.158       .  T
C2922      N2928   1.157   1_545  T
C2923      N2932   1.157       .  T
C2924      N2930   1.156       .  T
C2933      C2934   1.409       .  A
C2933      C2938   1.412       .  A
C2933      C2951   1.451       .  S
C2934      C2939   1.498       .  S
C2934      C2935   1.408       .  A
C2935      C2936   1.411       .  A
C2935      C2940   1.453       .  S
C2936      C2937   1.421       .  A
C2936      C2952   1.447       .  S
C2937      C2938   1.421       .  A
C2938      C2941   1.452       .  S
C2939      C2942   1.410       .  A
C2939      C2946   1.411       .  A
C2940      N2957   1.157       .  T
C2941      N2959   1.157       .  T
C2942      C2943   1.409       .  A
C2942      C2947   1.452       .  S
C2943      C2944   1.417       .  A
C2943      C2949   1.452       .  S
C2944      C2945   1.417       .  A
C2945      C2946   1.414       .  A
C2945      C2948   1.451       .  S
C2946      C2950   1.450       .  S
C2947      N2954   1.157       .  T
C2948      N2955   1.158       .  T
C2949      N2953   1.157       .  T
C2950      N2956   1.157       .  T
C2951      N2960   1.157       .  T
C2952      N2958   1.157       .  T
C2961      C2962   1.409       .  A
C2961      C2966   1.414       .  A
C2961      C2979   1.450       .  S
C2962      C2967   1.505       .  S
C2962      C2963   1.410       .  A
C2963      C2964   1.416       .  A
C2963      C2968   1.451       .  S
C2964      C2965   1.418       .  A
C2964      C2980   1.447       .  S
C2965      C2966   1.420       .  A
C2966      C2969   1.451       .  S
C2967      C2970   1.411       .  A
C2967      C2974   1.411       .  A
C2968      N2985   1.157       .  T
C2969      N2987   1.157       .  T
C2970      C2971   1.417       .  A
C2970      C2975   1.449       .  S
C2971      C2972   1.417       .  A
C2971      C2977   1.450       .  S
C2972      C2973   1.419       .  A
C2973      C2974   1.413       .  A
C2973      C2976   1.452       .  S
C2974      C2978   1.451       .  S
C2975      N2982   1.157       .  T
C2976      N2983   1.157       .  T
C2977      N2981   1.157       .  T
C2978      N2984   1.157       .  T
C2979      N2988   1.157       .  T
C2980      N2986   1.157       .  T
C2989      C2990   1.414       .  A
C2989      C2994   1.417       .  A
C2989      C3007   1.449       .  S
C2990      C2995   1.504       .  S
C2990      C2991   1.410       .  A
C2991      C2992   1.411       .  A
C2991      C2996   1.451       .  S
C2992      C2993   1.417       .  A
C2992      C3008   1.451       .  S
C2993      C2994   1.410       .  A
C2994      C2997   1.449       .  S
C2995      C2998   1.412       .  A
C2995      C3002   1.410       .  A
C2996      N3013   1.157       .  T
C2997      N3015   1.157       .  T
C2998      C2999   1.416       .  A
C2998      C3003   1.450       .  S
C2999      C3000   1.417       .  A
C2999      C3005   1.450       .  S
C3000      C3001   1.420       .  A
C3001      C3002   1.414       .  A
C3001      C3004   1.451       .  S
C3002      C3006   1.451       .  S
C3003      N3010   1.157       .  T
C3004      N3011   1.157       .  T
C3005      N3009   1.157       .  T
C3006      N3012   1.157       .  T
C3007      N3016   1.157       .  T
C3008      N3014   1.157       .  T
C3017      C3018   1.412       .  A
C3017      C3022   1.411       .  A
C3017      C3035   1.450       .  S
C3018      C3023   1.499       .  S
C3018      C3019   1.413   1_556  A
C3019      C3020   1.411       .  A
C3019      C3024   1.450       .  S
C3020      C3021   1.411   1_554  A
C3020      C3036   1.451       .  S
C3021      C3022   1.412       .  A
C3022      C3025   1.451       .  S
C3023      C3026   1.411       .  A
C3023      C3030   1.411       .  A
C3024      N3041   1.157       .  T
C3025      N3043   1.157       .  T
C3026      C3027   1.413       .  A
C3026      C3031   1.450       .  S
C3027      C3028   1.415       .  A
C3027      C3033   1.451       .  S
C3028      C3029   1.415       .  A
C3029      C3030   1.411       .  A
C3029      C3032   1.451       .  S
C3030      C3034   1.451       .  S
C3031      N3038   1.157       .  T
C3032      N3039   1.157   1_556  T
C3033      N3037   1.157       .  T
C3034      N3040   1.157   1_556  T
C3035      N3044   1.157       .  T
C3036      N3042   1.157       .  T
C3045      C3046   1.404       .  A
C3045      C3050   1.413       .  A
C3045      C3063   1.455       .  S
C3046      C3051   1.499       .  S
C3046      C3047   1.405   1_554  A
C3047      C3048   1.411       .  A
C3047      C3052   1.452       .  S
C3048      C3049   1.430   1_556  A
C3048      C3064   1.452       .  S
C3049      C3050   1.433       .  A
C3050      C3053   1.448       .  S
C3051      C3054   1.409   1_554  A
C3051      C3058   1.408       .  A
C3052      N3069   1.157       .  T
C3053      N3071   1.157       .  T
C3054      C3055   1.407       .  A
C3054      C3059   1.453       .  S
C3055      C3056   1.422   1_556  A
C3055      C3061   1.451       .  S
C3056      C3057   1.427       .  A
C3057      C3058   1.414       .  A
C3057      C3060   1.451       .  S
C3058      C3062   1.452       .  S
C3059      N3066   1.157       .  T
C3060      N3067   1.158       .  T
C3061      N3065   1.157       .  T
C3062      N3068   1.157       .  T
C3063      N3072   1.157       .  T
C3064      N3070   1.157       .  T
C3073      C3074   1.411       .  A
C3073      C3078   1.412       .  A
C3073      C3091   1.450       .  S
C3074      C3079   1.496       .  S
C3074      C3075   1.410       .  A
C3075      C3076   1.408       .  A
C3075      C3080   1.450       .  S
C3076      C3077   1.412       .  A
C3076      C3092   1.448       .  S
C3077      C3078   1.412       .  A
C3078      C3081   1.445       .  S
C3079      C3082   1.410       .  A
C3079      C3086   1.412       .  A
C3080      N3097   1.157       .  T
C3081      N3099   1.157       .  T
C3082      C3083   1.411       .  A
C3082      C3087   1.451       .  S
C3083      C3084   1.417       .  A
C3083      C3089   1.452       .  S
C3084      C3085   1.415       .  A
C3085      C3086   1.410       .  A
C3085      C3088   1.452       .  S
C3086      C3090   1.451       .  S
C3087      N3094   1.157       .  T
C3088      N3095   1.157       .  T
C3089      N3093   1.157       .  T
C3090      N3096   1.157       .  T
C3091      N3100   1.157       .  T
C3092      N3098   1.157       .  T
C3101      C3102   1.411       .  A
C3101      C3106   1.412       .  A
C3101      C3119   1.451       .  S
C3102      C3107   1.496       .  S
C3102      C3103   1.409       .  A
C3103      C3104   1.411       .  A
C3103      C3108   1.451       .  S
C3104      C3105   1.416       .  A
C3104      C3120   1.451       .  S
C3105      C3106   1.416       .  A
C3106      C3109   1.451       .  S
C3107      C3110   1.407       .  A
C3107      C3114   1.410       .  A
C3108      N3125   1.157       .  T
C3109      N3127   1.157       .  T
C3110      C3111   1.408       .  A
C3110      C3115   1.453       .  S
C3111      C3112   1.419       .  A
C3111      C3117   1.450       .  S
C3112      C3113   1.415       .  A
C3113      C3114   1.414       .  A
C3113      C3116   1.450       .  S
C3114      C3118   1.450       .  S
C3115      N3122   1.157       .  T
C3116      N3123   1.157       .  T
C3117      N3121   1.157       .  T
C3118      N3124   1.157       .  T
C3119      N3128   1.157       .  T
C3120      N3126   1.157       .  T
C3129      C3130   1.411       .  A
C3129      C3134   1.410       .  A
C3129      C3147   1.451       .  S
C3130      C3135   1.496       .  S
C3130      C3131   1.410       .  A
C3131      C3132   1.412       .  A
C3131      C3136   1.450       .  S
C3132      C3133   1.416       .  A
C3132      C3148   1.451       .  S
C3133      C3134   1.413       .  A
C3134      C3137   1.450       .  S
C3135      C3138   1.406       .  A
C3135      C3142   1.407       .  A
C3136      N3153   1.157       .  T
C3137      N3155   1.157       .  T
C3138      C3139   1.410       .  A
C3138      C3143   1.452       .  S
C3139      C3140   1.423       .  A
C3139      C3145   1.448       .  S
C3140      C3141   1.425       .  A
C3141      C3142   1.413       .  A
C3141      C3144   1.450       .  S
C3142      C3146   1.450       .  S
C3143      N3150   1.157       .  T
C3144      N3151   1.158       .  T
C3145      N3149   1.156       .  T
C3146      N3152   1.157       .  T
C3147      N3156   1.157       .  T
C3148      N3154   1.157       .  T
C3157      C3158   1.412       .  A
C3157      C3162   1.413       .  A
C3157      C3175   1.451       .  S
C3158      C3163   1.501       .  S
C3158      C3159   1.410       .  A
C3159      C3160   1.411       .  A
C3159      C3164   1.451       .  S
C3160      C3161   1.419       .  A
C3160      C3176   1.452       .  S
C3161      C3162   1.418       .  A
C3162      C3165   1.451       .  S
C3163      C3166   1.415       .  A
C3163      C3170   1.411       .  A
C3164      N3181   1.157       .  T
C3165      N3183   1.157       .  T
C3166      C3167   1.416       .  A
C3166      C3171   1.449       .  S
C3167      C3168   1.411       .  A
C3167      C3173   1.448       .  S
C3168      C3169   1.414       .  A
C3169      C3170   1.406       .  A
C3169      C3172   1.451       .  S
C3170      C3174   1.452       .  S
C3171      N3178   1.157       .  T
C3172      N3179   1.157       .  T
C3173      N3177   1.157       .  T
C3174      N3180   1.157       .  T
C3175      N3184   1.157       .  T
C3176      N3182   1.157       .  T
C3185      C3186   1.410       .  A
C3185      C3190   1.411       .  A
C3185      C3203   1.452       .  S
C3186      C3191   1.498       .  S
C3186      C3187   1.409       .  A
C3187      C3188   1.413       .  A
C3187      C3192   1.450       .  S
C3188      C3189   1.419       .  A
C3188      C3204   1.451       .  S
C3189      C3190   1.418       .  A
C3190      C3193   1.452       .  S
C3191      C3194   1.408       .  A
C3191      C3198   1.408       .  A
C3192      N3209   1.157       .  T
C3193      N3211   1.157       .  T
C3194      C3195   1.414       .  A
C3194      C3199   1.451       .  S
C3195      C3196   1.418       .  A
C3195      C3201   1.446       .  S
C3196      C3197   1.419       .  A
C3197      C3198   1.410       .  A
C3197      C3200   1.451       .  S
C3198      C3202   1.451       .  S
C3199      N3206   1.157       .  T
C3200      N3207   1.157       .  T
C3201      N3205   1.156       .  T
C3202      N3208   1.157       .  T
C3203      N3212   1.157       .  T
C3204      N3210   1.158       .  T
C3213      C3214   1.411       .  A
C3213      C3218   1.418       .  A
C3213      C3231   1.451       .  S
C3214      C3219   1.507       .  S
C3214      C3215   1.409       .  A
C3215      C3216   1.412       .  A
C3215      C3220   1.452       .  S
C3216      C3217   1.423       .  A
C3216      C3232   1.451       .  S
C3217      C3218   1.422       .  A
C3218      C3221   1.447       .  S
C3219      C3222   1.412       .  A
C3219      C3226   1.412       .  A
C3220      N3237   1.157       .  T
C3221      N3239   1.158       .  T
C3222      C3223   1.415       .  A
C3222      C3227   1.451       .  S
C3223      C3224   1.420       .  A
C3223      C3229   1.451       .  S
C3224      C3225   1.419       .  A
C3225      C3226   1.415       .  A
C3225      C3228   1.451       .  S
C3226      C3230   1.451       .  S
C3227      N3234   1.157       .  T
C3228      N3235   1.157   1_565  T
C3229      N3233   1.158       .  T
C3230      N3236   1.157       .  T
C3231      N3240   1.157       .  T
C3232      N3238   1.157       .  T
C3241      C3242   1.408       .  A
C3241      C3246   1.412       .  A
C3241      C3259   1.451       .  S
C3242      C3247   1.504       .  S
C3242      C3243   1.410       .  A
C3243      C3244   1.416       .  A
C3243      C3248   1.450       .  S
C3244      C3245   1.420       .  A
C3244      C3260   1.446       .  S
C3245      C3246   1.421       .  A
C3246      C3249   1.450       .  S
C3247      C3250   1.412       .  A
C3247      C3254   1.409       .  A
C3248      N3265   1.157       .  T
C3249      N3267   1.157       .  T
C3250      C3251   1.413       .  A
C3250      C3255   1.452       .  S
C3251      C3252   1.420       .  A
C3251      C3257   1.451       .  S
C3252      C3253   1.423       .  A
C3253      C3254   1.416       .  A
C3253      C3256   1.451       .  S
C3254      C3258   1.451       .  S
C3255      N3262   1.157       .  T
C3256      N3263   1.158       .  T
C3257      N3261   1.157       .  T
C3258      N3264   1.157       .  T
C3259      N3268   1.157       .  T
C3260      N3266   1.157       .  T
C3269      C3270   1.407       .  A
C3269      C3274   1.413       .  A
C3269      C3287   1.451       .  S
C3270      C3275   1.497       .  S
C3270      C3271   1.406       .  A
C3271      C3272   1.412       .  A
C3271      C3276   1.452       .  S
C3272      C3273   1.427       .  A
C3272      C3288   1.450       .  S
C3273      C3274   1.426       .  A
C3274      C3277   1.451       .  S
C3275      C3278   1.410       .  A
C3275      C3282   1.410       .  A
C3276      N3293   1.157       .  T
C3277      N3295   1.157       .  T
C3278      C3279   1.412       .  A
C3278      C3283   1.450       .  S
C3279      C3280   1.417       .  A
C3279      C3285   1.451       .  S
C3280      C3281   1.416       .  A
C3281      C3282   1.410       .  A
C3281      C3284   1.452       .  S
C3282      C3286   1.451       .  S
C3283      N3290   1.157       .  T
C3284      N3291   1.158       .  T
C3285      N3289   1.157       .  T
C3286      N3292   1.157       .  T
C3287      N3296   1.157       .  T
C3288      N3294   1.158       .  T
C3297      C3298   1.411       .  A
C3297      C3302   1.413       .  A
C3297      C3315   1.451       .  S
C3298      C3303   1.507       .  S
C3298      C3299   1.410       .  A
C3299      C3300   1.415       .  A
C3299      C3304   1.453       .  S
C3300      C3301   1.422       .  A
C3300      C3316   1.447       .  S
C3301      C3302   1.419       .  A
C3302      C3305   1.450       .  S
C3303      C3306   1.410       .  A
C3303      C3310   1.412       .  A
C3304      N3321   1.157       .  T
C3305      N3323   1.157       .  T
C3306      C3307   1.413       .  A
C3306      C3311   1.452       .  S
C3307      C3308   1.424       .  A
C3307      C3313   1.452       .  S
C3308      C3309   1.421       .  A
C3309      C3310   1.415       .  A
C3309      C3312   1.450       .  S
C3310      C3314   1.451       .  S
C3311      N3318   1.157       .  T
C3312      N3319   1.157       .  T
C3313      N3317   1.158       .  T
C3314      N3320   1.157       .  T
C3315      N3324   1.157       .  T
C3316      N3322   1.157       .  T
C3325      C3326   1.412       .  A
C3325      C3330   1.413       .  A
C3325      C3343   1.450       .  S
C3326      C3331   1.499       .  S
C3326      C3327   1.410       .  A
C3327      C3328   1.410       .  A
C3327      C3332   1.451       .  S
C3328      C3329   1.415       .  A
C3328      C3344   1.451       .  S
C3329      C3330   1.413       .  A
C3330      C3333   1.451       .  S
C3331      C3334   1.402       .  A
C3331      C3338   1.405       .  A
C3332      N3349   1.157       .  T
C3333      N3351   1.157       .  T
C3334      C3335   1.411       .  A
C3334      C3339   1.454       .  S
C3335      C3336   1.437       .  A
C3335      C3341   1.453       .  S
C3336      C3337   1.431       .  A
C3337      C3338   1.418       .  A
C3337      C3340   1.445       .  S
C3338      C3342   1.453       .  S
C3339      N3346   1.157       .  T
C3340      N3347   1.157       .  T
C3341      N3345   1.157       .  T
C3342      N3348   1.157       .  T
C3343      N3352   1.157       .  T
C3344      N3350   1.157       .  T
C3353      C3354   1.409       .  A
C3353      C3358   1.412       .  A
C3353      C3371   1.451       .  S
C3354      C3359   1.499       .  S
C3354      C3355   1.411       .  A
C3355      C3356   1.412       .  A
C3355      C3360   1.451       .  S
C3356      C3357   1.418       .  A
C3356      C3372   1.451       .  S
C3357      C3358   1.420       .  A
C3358      C3361   1.451       .  S
C3359      C3362   1.407       .  A
C3359      C3366   1.408       .  A
C3360      N3377   1.157       .  T
C3361      N3379   1.157       .  T
C3362      C3363   1.410       .  A
C3362      C3367   1.452       .  S
C3363      C3364   1.421       .  A
C3363      C3369   1.449       .  S
C3364      C3365   1.420       .  A
C3365      C3366   1.415       .  A
C3365      C3368   1.447       .  S
C3366      C3370   1.451       .  S
C3367      N3374   1.157       .  T
C3368      N3375   1.157       .  T
C3369      N3373   1.156       .  T
C3370      N3376   1.157       .  T
C3371      N3380   1.157       .  T
C3372      N3378   1.157       .  T
C3381      C3382   1.410       .  A
C3381      C3386   1.412       .  A
C3381      C3399   1.452       .  S
C3382      C3387   1.503       .  S
C3382      C3383   1.411       .  A
C3383      C3384   1.412       .  A
C3383      C3388   1.451       .  S
C3384      C3385   1.419       .  A
C3384      C3400   1.450       .  S
C3385      C3386   1.419       .  A
C3386      C3389   1.446       .  S
C3387      C3390   1.412       .  A
C3387      C3394   1.414       .  A
C3388      N3405   1.157       .  T
C3389      N3407   1.157       .  T
C3390      C3391   1.410       .  A
C3390      C3395   1.452       .  S
C3391      C3392   1.416       .  A
C3391      C3397   1.452       .  S
C3392      C3393   1.415       .  A
C3393      C3394   1.413       .  A
C3393      C3396   1.451       .  S
C3394      C3398   1.451       .  S
C3395      N3402   1.157       .  T
C3396      N3403   1.157       .  T
C3397      N3401   1.157       .  T
C3398      N3404   1.157       .  T
C3399      N3408   1.157       .  T
C3400      N3406   1.157       .  T
C3409      C3410   1.412       .  A
C3409      C3414   1.413       .  A
C3409      C3427   1.449       .  S
C3410      C3415   1.494       .  S
C3410      C3411   1.408       .  A
C3411      C3412   1.405       .  A
C3411      C3416   1.451       .  S
C3412      C3413   1.416       .  A
C3412      C3428   1.452       .  S
C3413      C3414   1.409       .  A
C3414      C3417   1.448       .  S
C3415      C3418   1.409       .  A
C3415      C3422   1.411       .  A
C3416      N3433   1.157       .  T
C3417      N3435   1.157       .  T
C3418      C3419   1.410       .  A
C3418      C3423   1.451       .  S
C3419      C3420   1.416       .  A
C3419      C3425   1.451       .  S
C3420      C3421   1.414       .  A
C3421      C3422   1.410       .  A
C3421      C3424   1.451       .  S
C3422      C3426   1.451       .  S
C3423      N3430   1.157       .  T
C3424      N3431   1.157       .  T
C3425      N3429   1.157       .  T
C3426      N3432   1.157       .  T
C3427      N3436   1.157       .  T
C3428      N3434   1.158       .  T
C3437      C3438   1.408       .  A
C3437      C3442   1.411       .  A
C3437      C3455   1.451       .  S
C3438      C3443   1.496       .  S
C3438      C3439   1.409       .  A
C3439      C3440   1.411       .  A
C3439      C3444   1.451       .  S
C3440      C3441   1.418       .  A
C3440      C3456   1.451       .  S
C3441      C3442   1.421       .  A
C3442      C3445   1.452       .  S
C3443      C3446   1.406       .  A
C3443      C3450   1.406       .  A
C3444      N3461   1.157       .  T
C3445      N3463   1.157       .  T
C3446      C3447   1.413       .  A
C3446      C3451   1.452       .  S
C3447      C3448   1.426       .  A
C3447      C3453   1.448       .  S
C3448      C3449   1.426       .  A
C3449      C3450   1.411       .  A
C3449      C3452   1.451       .  S
C3450      C3454   1.451       .  S
C3451      N3458   1.157       .  T
C3452      N3459   1.158       .  T
C3453      N3457   1.157       .  T
C3454      N3460   1.157       .  T
C3455      N3464   1.157       .  T
C3456      N3462   1.157       .  T
C3465      C3466   1.408       .  A
C3465      C3470   1.411       .  A
C3465      C3483   1.451       .  S
C3466      C3471   1.500       .  S
C3466      C3467   1.409       .  A
C3467      C3468   1.413       .  A
C3467      C3472   1.450       .  S
C3468      C3469   1.423       .  A
C3468      C3484   1.450       .  S
C3469      C3470   1.424       .  A
C3470      C3473   1.451       .  S
C3471      C3474   1.409       .  A
C3471      C3478   1.409       .  A
C3472      N3489   1.157       .  T
C3473      N3491   1.157       .  T
C3474      C3475   1.413       .  A
C3474      C3479   1.451       .  S
C3475      C3476   1.421       .  A
C3475      C3481   1.451       .  S
C3476      C3477   1.422       .  A
C3477      C3478   1.413       .  A
C3477      C3480   1.451       .  S
C3478      C3482   1.451       .  S
C3479      N3486   1.157       .  T
C3480      N3487   1.157       .  T
C3481      N3485   1.158       .  T
C3482      N3488   1.157       .  T
C3483      N3492   1.157       .  T
C3484      N3490   1.158       .  T
C3493      C3494   1.409   1_545  A
C3493      C3498   1.412       .  A
C3493      C3511   1.451       .  S
C3494      C3499   1.501       .  S
C3494      C3495   1.408       .  A
C3495      C3496   1.414       .  A
C3495      C3500   1.452       .  S
C3496      C3497   1.420       .  A
C3496      C3512   1.446       .  S
C3497      C3498   1.420   1_565  A
C3498      C3501   1.451       .  S
C3499      C3502   1.408       .  A
C3499      C3506   1.412       .  A
C3500      N3517   1.157       .  T
C3501      N3519   1.157       .  T
C3502      C3503   1.412       .  A
C3502      C3507   1.451       .  S
C3503      C3504   1.423       .  A
C3503      C3509   1.452       .  S
C3504      C3505   1.417       .  A
C3505      C3506   1.413       .  A
C3505      C3508   1.451       .  S
C3506      C3510   1.451       .  S
C3507      N3514   1.157       .  T
C3508      N3515   1.157       .  T
C3509      N3513   1.158       .  T
C3510      N3516   1.157       .  T
C3511      N3520   1.157       .  T
C3512      N3518   1.157       .  T
C3521      C3522   1.410   1_565  A
C3521      C3526   1.408       .  A
C3521      C3539   1.451       .  S
C3522      C3527   1.498       .  S
C3522      C3523   1.413       .  A
C3523      C3524   1.414       .  A
C3523      C3528   1.449       .  S
C3524      C3525   1.410       .  A
C3524      C3540   1.449       .  S
C3525      C3526   1.415   1_545  A
C3526      C3529   1.451       .  S
C3527      C3530   1.408   1_545  A
C3527      C3534   1.412       .  A
C3528      N3545   1.157       .  T
C3529      N3547   1.157       .  T
C3530      C3531   1.411       .  A
C3530      C3535   1.451       .  S
C3531      C3532   1.420   1_565  A
C3531      C3537   1.452       .  S
C3532      C3533   1.417       .  A
C3533      C3534   1.413       .  A
C3533      C3536   1.451       .  S
C3534      C3538   1.451       .  S
C3535      N3542   1.157       .  T
C3536      N3543   1.157       .  T
C3537      N3541   1.157       .  T
C3538      N3544   1.157       .  T
C3539      N3548   1.157       .  T
C3540      N3546   1.157       .  T
C3549      C3550   1.407       .  A
C3549      C3554   1.415       .  A
C3549      C3567   1.451       .  S
C3550      C3555   1.498       .  S
C3550      C3551   1.405       .  A
C3551      C3552   1.410       .  A
C3551      C3556   1.452       .  S
C3552      C3553   1.425       .  A
C3552      C3568   1.449       .  S
C3553      C3554   1.428       .  A
C3554      C3557   1.450       .  S
C3555      C3558   1.409       .  A
C3555      C3562   1.410       .  A
C3556      N3573   1.157       .  T
C3557      N3575   1.157       .  T
C3558      C3559   1.411       .  A
C3558      C3563   1.451       .  S
C3559      C3560   1.419       .  A
C3559      C3565   1.451       .  S
C3560      C3561   1.417       .  A
C3561      C3562   1.413       .  A
C3561      C3564   1.451       .  S
C3562      C3566   1.451       .  S
C3563      N3570   1.157       .  T
C3564      N3571   1.157       .  T
C3565      N3569   1.157       .  T
C3566      N3572   1.157       .  T
C3567      N3576   1.157       .  T
C3568      N3574   1.157       .  T
C3577      C3578   1.410       .  A
C3577      C3582   1.411       .  A
C3577      C3595   1.452       .  S
C3578      C3583   1.498       .  S
C3578      C3579   1.409       .  A
C3579      C3580   1.412       .  A
C3579      C3584   1.451       .  S
C3580      C3581   1.419       .  A
C3580      C3596   1.451       .  S
C3581      C3582   1.420       .  A
C3582      C3585   1.452       .  S
C3583      C3586   1.413       .  A
C3583      C3590   1.410       .  A
C3584      N3601   1.157       .  T
C3585      N3603   1.158       .  T
C3586      C3587   1.414       .  A
C3586      C3591   1.449       .  S
C3587      C3588   1.411       .  A
C3587      C3593   1.449       .  S
C3588      C3589   1.416       .  A
C3589      C3590   1.408       .  A
C3589      C3592   1.452       .  S
C3590      C3594   1.451       .  S
C3591      N3598   1.157       .  T
C3592      N3599   1.157       .  T
C3593      N3597   1.157       .  T
C3594      N3600   1.157       .  T
C3595      N3604   1.157       .  T
C3596      N3602   1.157       .  T
C3605      C3606   1.412       .  A
C3605      C3610   1.414       .  A
C3605      C3623   1.451       .  S
C3606      C3611   1.505       .  S
C3606      C3607   1.412       .  A
C3607      C3608   1.415       .  A
C3607      C3612   1.451       .  S
C3608      C3609   1.418       .  A
C3608      C3624   1.450       .  S
C3609      C3610   1.417       .  A
C3610      C3613   1.451       .  S
C3611      C3614   1.414       .  A
C3611      C3618   1.414       .  A
C3612      N3629   1.157       .  T
C3613      N3631   1.157       .  T
C3614      C3615   1.413       .  A
C3614      C3619   1.450       .  S
C3615      C3616   1.412       .  A
C3615      C3621   1.451       .  S
C3616      C3617   1.411       .  A
C3617      C3618   1.414       .  A
C3617      C3620   1.451       .  S
C3618      C3622   1.450       .  S
C3619      N3626   1.157       .  T
C3620      N3627   1.157       .  T
C3621      N3625   1.157       .  T
C3622      N3628   1.157       .  T
C3623      N3632   1.157       .  T
C3624      N3630   1.157       .  T
C3633      C3634   1.414       .  A
C3633      C3638   1.413       .  A
C3633      C3651   1.450       .  S
C3634      C3639   1.498       .  S
C3634      C3635   1.411       .  A
C3635      C3636   1.407       .  A
C3635      C3640   1.451       .  S
C3636      C3637   1.414       .  A
C3636      C3652   1.452       .  S
C3637      C3638   1.413       .  A
C3638      C3641   1.450       .  S
C3639      C3642   1.409       .  A
C3639      C3646   1.410       .  A
C3640      N3657   1.157       .  T
C3641      N3659   1.157       .  T
C3642      C3643   1.413       .  A
C3642      C3647   1.451       .  S
C3643      C3644   1.423       .  A
C3643      C3649   1.452       .  S
C3644      C3645   1.417       .  A
C3645      C3646   1.410       .  A
C3645      C3648   1.448       .  S
C3646      C3650   1.453       .  S
C3647      N3654   1.157       .  T
C3648      N3655   1.157       .  T
C3649      N3653   1.157       .  T
C3650      N3656   1.157       .  T
C3651      N3660   1.157       .  T
C3652      N3658   1.157       .  T
C3661      C3662   1.410       .  A
C3661      C3666   1.411       .  A
C3661      C3679   1.450       .  S
C3662      C3667   1.496       .  S
C3662      C3663   1.410       .  A
C3663      C3664   1.410       .  A
C3663      C3668   1.451       .  S
C3664      C3665   1.418       .  A
C3664      C3680   1.452       .  S
C3665      C3666   1.416       .  A
C3666      C3669   1.451       .  S
C3667      C3670   1.407       .  A
C3667      C3674   1.407       .  A
C3668      N3685   1.157       .  T
C3669      N3687   1.157       .  T
C3670      C3671   1.411       .  A
C3670      C3675   1.453       .  S
C3671      C3672   1.421       .  A
C3671      C3677   1.447       .  S
C3672      C3673   1.423       .  A
C3673      C3674   1.412       .  A
C3673      C3676   1.450       .  S
C3674      C3678   1.451       .  S
C3675      N3682   1.157       .  T
C3676      N3683   1.157       .  T
C3677      N3681   1.157       .  T
C3678      N3684   1.157       .  T
C3679      N3688   1.157       .  T
C3680      N3686   1.158       .  T
C3689      C3690   1.414       .  A
C3689      C3694   1.413       .  A
C3689      C3707   1.451       .  S
C3690      C3695   1.504       .  S
C3690      C3691   1.413       .  A
C3691      C3692   1.412       .  A
C3691      C3696   1.451       .  S
C3692      C3693   1.415       .  A
C3692      C3708   1.451       .  S
C3693      C3694   1.415       .  A
C3694      C3697   1.451       .  S
C3695      C3698   1.410       .  A
C3695      C3702   1.408       .  A
C3696      N3713   1.157       .  T
C3697      N3715   1.157       .  T
C3698      C3699   1.417       .  A
C3698      C3703   1.452       .  S
C3699      C3700   1.424       .  A
C3699      C3705   1.447       .  S
C3700      C3701   1.425       .  A
C3701      C3702   1.411       .  A
C3701      C3704   1.452       .  S
C3702      C3706   1.452       .  S
C3703      N3710   1.157       .  T
C3704      N3711   1.157       .  T
C3705      N3709   1.158       .  T
C3706      N3712   1.157       .  T
C3707      N3716   1.157       .  T
C3708      N3714   1.157       .  T
C3717      C3718   1.409       .  A
C3717      C3722   1.417       .  A
C3717      C3735   1.450       .  S
C3718      C3723   1.499       .  S
C3718      C3719   1.406       .  A
C3719      C3720   1.409       .  A
C3719      C3724   1.451       .  S
C3720      C3721   1.422       .  A
C3720      C3736   1.450       .  S
C3721      C3722   1.420       .  A
C3722      C3725   1.446       .  S
C3723      C3726   1.409       .  A
C3723      C3730   1.413       .  A
C3724      N3741   1.157       .  T
C3725      N3743   1.158       .  T
C3726      C3727   1.411       .  A
C3726      C3731   1.450       .  S
C3727      C3728   1.417       .  A
C3727      C3733   1.451       .  S
C3728      C3729   1.413       .  A
C3729      C3730   1.413       .  A
C3729      C3732   1.451       .  S
C3730      C3734   1.451       .  S
C3731      N3738   1.157       .  T
C3732      N3739   1.157       .  T
C3733      N3737   1.157       .  T
C3734      N3740   1.157       .  T
C3735      N3744   1.157       .  T
C3736      N3742   1.157       .  T
