geometry optimzed in LAMMPS
_audit_creation_date              2020-11-30 
_audit_creation_method            'lammps2cif' 
_symmetry_space_group_name_H-M    'P1' 
_symmetry_Int_Tables_number       1 
_symmetry_cell_setting            triclinic 
loop_ 
_symmetry_equiv_pos_as_xyz 
  x,y,z 
_cell_length_a                    79.09636336 
_cell_length_b                    30.46943630806679 
_cell_length_c                    26.229884026202388 
_cell_angle_alpha                 89.49082927777553 
_cell_angle_beta                  89.49259472927297 
_cell_angle_gamma                 90.14513081193013 
loop_ 
_atom_site_label 
_atom_site_type_symbol 
_atom_site_fract_x 
_atom_site_fract_y 
_atom_site_fract_z 
_atom_site_charge 
C1          C  0.71479841  0.47890082  0.92486475     0.30800
C2          C  0.71386267  0.47381593  0.03062213     0.30800
C3          C  0.72428524  0.51544628  0.95340119    -0.05400
C4          C  0.69727840  0.48242453  0.95005727    -0.06200
C5          C  0.72195782  0.43711199  0.94955267    -0.06000
C6          C  0.72394858  0.51221041  0.00687676    -0.05400
C7          C  0.69644694  0.47830751  0.00330333    -0.06200
C8          C  0.72130909  0.43423966  0.00253355    -0.06000
C9          C  0.73015789  0.55091015  0.02581857    -0.31400
N10         N  0.73391155  0.57779406  0.98593950     0.15100
C11         C  0.72970120  0.55757148  0.94209330    -0.31400
H12         H  0.72980311  0.57386250  0.90536682     0.17000
C13         C  0.67929906  0.47788937  0.01511116    -0.30400
N14         N  0.67017796  0.48495860  0.97198764     0.13800
C15         C  0.68119305  0.48870031  0.93233294    -0.30400
C16         C  0.72816970  0.39441303  0.01592572    -0.30700
N17         N  0.73340096  0.37373771  0.97294780     0.14300
H18         H  0.72959431  0.38169506  0.05433070     0.16900
C19         C  0.72941272  0.39933110  0.93215417    -0.30700
H20         H  0.73150151  0.39089083  0.89265833     0.16900
H21         H  0.67791198  0.49621305  0.89331600     0.16900
H22         H  0.73105419  0.55982013  0.06557362     0.17000
H23         H  0.67353399  0.47120513  0.05183798     0.16900
C24         C  0.71627296  0.46438965  0.42530133     0.30800
C25         C  0.71396638  0.46334040  0.53077052     0.30800
C26         C  0.72661611  0.49994423  0.45320500    -0.05400
C27         C  0.69854366  0.47221773  0.44812369    -0.06200
C28         C  0.72169983  0.42187782  0.45251346    -0.06000
C29         C  0.72560792  0.49875331  0.50676406    -0.05400
C30         C  0.69716453  0.47054533  0.50144120    -0.06200
C31         C  0.72024974  0.42079342  0.50551354    -0.06000
C32         C  0.73040015  0.53969208  0.52396291    -0.31400
N33         N  0.73397406  0.56594398  0.48331918     0.15100
C34         C  0.73103849  0.54276970  0.44044759    -0.31400
H35         H  0.73110830  0.55724622  0.40272609     0.17000
C36         C  0.68000831  0.47100401  0.51231399    -0.30400
N37         N  0.67129913  0.47662531  0.46830443     0.13800
C38         C  0.68250276  0.47728008  0.42893204    -0.30400
C39         C  0.72474882  0.37894753  0.52100697    -0.30700
N40         N  0.72960105  0.35573140  0.47937074     0.14300
H41         H  0.72485993  0.36650079  0.55976641     0.16900
C42         C  0.72756983  0.38151395  0.43738922    -0.30700
H43         H  0.73008533  0.37148758  0.39857350     0.16900
H44         H  0.67913476  0.48018150  0.38913843     0.16900
H45         H  0.72994713  0.55068413  0.56308955     0.17000
H46         H  0.67404507  0.46520643  0.54897593     0.16900
C47         C  0.80577058  0.97791655  0.02936281     0.30800
C48         C  0.80762673  0.97507194  0.92382046     0.30800
C49         C  0.79537677  0.01269333  0.00051323    -0.05400
C50         C  0.82342776  0.98551214  0.00500348    -0.06200
C51         C  0.80010830  0.93536642  0.00435395    -0.06000
C52         C  0.79633655  0.01155432  0.94682163    -0.05400
C53         C  0.82437013  0.98392415  0.95172990    -0.06200
C54         C  0.80097033  0.93379507  0.95135705    -0.06000
C55         C  0.79226099  0.05338878  0.93025801    -0.31400
N56         N  0.78755079  0.07805574  0.97066995     0.15100
C57         C  0.79038172  0.05438774  0.01359076    -0.31400
H58         H  0.78953858  0.06718866  0.05187277     0.17000
C59         C  0.84094638  0.99224415  0.93813990    -0.30400
N60         N  0.85013168  0.99788507  0.98117177     0.13800
C61         C  0.83939083  0.99572957  0.02182933    -0.30400
C62         C  0.79414614  0.89418941  0.93718683    -0.30700
N63         N  0.78913918  0.87218797  0.98001953     0.14300
H64         H  0.79238302  0.88281067  0.89853172     0.16900
C65         C  0.79289080  0.89687942  0.02123813    -0.30700
H66         H  0.79025557  0.88786530  0.06044041     0.16900
H67         H  0.84293796  0.00188887  0.06090492     0.16900
H68         H  0.79382749  0.06624518  0.89196665     0.17000
H69         H  0.84605057  0.99315653  0.89984648     0.16900
C70         C  0.80912672  0.96405382  0.52958326     0.30800
C71         C  0.80789351  0.96644774  0.42390598     0.30800
C72         C  0.80015286  0.00371529  0.50524981    -0.05400
C73         C  0.82623343  0.96312278  0.50098725    -0.06200
C74         C  0.79928807  0.92606726  0.50398243    -0.06000
C75         C  0.79970028  0.00510606  0.45209082    -0.05400
C76         C  0.82573604  0.96368394  0.44779228    -0.06200
C77         C  0.79915805  0.92664728  0.45040057    -0.06000
C78         C  0.78963775  0.04011112  0.43843191    -0.31400
N79         N  0.78390170  0.05968980  0.48158429     0.15100
C80         C  0.79007103  0.03742834  0.52241590    -0.31400
H81         H  0.78716975  0.04495695  0.56177558     0.17000
C82         C  0.84218922  0.95663324  0.43100292    -0.30400
N83         N  0.85264489  0.95371602  0.47204515     0.13800
C84         C  0.84285620  0.95711349  0.51481590    -0.30400
C85         C  0.79087940  0.88899330  0.43537362    -0.30700
N86         N  0.78489900  0.86779588  0.47739041     0.14300
H87         H  0.78961298  0.87681234  0.39699619     0.16900
C88         C  0.78955616  0.89033760  0.51923493    -0.30700
H89         H  0.78598653  0.88074249  0.55761260     0.16900
H90         H  0.84743696  0.95474511  0.55348570     0.16900
H91         H  0.78665810  0.05045527  0.39995440     0.17000
H92         H  0.84609984  0.95226793  0.39174994     0.16900
O93         O  0.48856310  0.56233405  0.01378090    -0.73600
O94         O  0.53695529  0.55511150  0.00027356    -0.73700
O95         O  0.51227754  0.59637753  0.94820231    -0.73700
O96         O  0.51387887  0.52147094  0.06576581    -0.73800
O97         O  0.51105100  0.46225776  0.01714817    -0.73700
O98         O  0.50917988  0.53703669  0.89974465    -0.73700
O99         O  0.53412215  0.49605691  0.95156876    -0.73600
O100        O  0.48591679  0.50306402  0.96552705    -0.73700
Ni101      Ni  0.51293493  0.56095191  0.00881436     1.25400
Ni102      Ni  0.50991778  0.49760072  0.95669025     1.25400
C103        C  0.47919949  0.53360075  0.99211239     0.88600
C104        C  0.54351956  0.52415397  0.97395089     0.88500
C105        C  0.51085200  0.57860926  0.90449764     0.88500
C106        C  0.51328610  0.47970022  0.06074488     0.88700
O107        O  0.48891284  0.52952710  0.46678908    -0.73600
O108        O  0.53673669  0.51733445  0.44910833    -0.73700
O109        O  0.50911461  0.48814628  0.39934836    -0.73700
O110        O  0.51641232  0.55871138  0.51683777    -0.73800
O111        O  0.51554514  0.49791573  0.56474279    -0.73700
O112        O  0.50921807  0.42708828  0.44709803    -0.73700
O113        O  0.53626288  0.45736527  0.49805652    -0.73600
O114        O  0.48826701  0.46799672  0.51348118    -0.73700
Ni115      Ni  0.51280305  0.52555149  0.45620372     1.25400
Ni116      Ni  0.51227705  0.46047531  0.50764992     1.25400
C117        C  0.48071360  0.50078152  0.49299339     0.88600
C118        C  0.54448737  0.48554819  0.47105137     0.88500
C119        C  0.50813202  0.44630694  0.40378389     0.88500
C120        C  0.51736917  0.53957952  0.56032794     0.88700
O121        O  0.03325741  0.05686279  0.98614007    -0.73600
O122        O  0.98527692  0.04848316  0.96960054    -0.73700
O123        O  0.00571453  0.08710576  0.03740409    -0.73700
O124        O  0.01273946  0.01741410  0.91809292    -0.73800
O125        O  0.01265180  0.95636574  0.96556653    -0.73700
O126        O  0.00486873  0.02505204  0.08334891    -0.73700
O127        O  0.98488330  0.98629402  0.01510396    -0.73600
O128        O  0.03295485  0.99625342  0.03391795    -0.73700
Ni129      Ni  0.00929191  0.05459532  0.97594992     1.25400
Ni130      Ni  0.00886986  0.98884495  0.02616219     1.25400
C131        C  0.04112036  0.02828530  0.01299624     0.88600
C132        C  0.97712547  0.01661267  0.99051473     0.88500
C133        C  0.00361190  0.06678589  0.07987351     0.88500
C134        C  0.01393729  0.97552890  0.92221708     0.88700
O135        O  0.98616164  0.98511624  0.52093684    -0.73600
O136        O  0.03432048  0.00275117  0.53028393    -0.73700
O137        O  0.00975835  0.02986215  0.46633194    -0.73700
O138        O  0.01046714  0.95798283  0.58545609    -0.73800
O139        O  0.01480323  0.89807101  0.53870379    -0.73700
O140        O  0.01425770  0.97068894  0.41878319    -0.73700
O141        O  0.03857892  0.94278271  0.48389545    -0.73600
O142        O  0.99042983  0.92600038  0.47345821    -0.73700
Ni143      Ni  0.01005531  0.99595771  0.52751317     1.25400
Ni144      Ni  0.01468508  0.93227465  0.47696036     1.25400
C145        C  0.98026959  0.95285016  0.49533558     0.88600
C146        C  0.04440529  0.97559520  0.50859847     0.88500
C147        C  0.01166368  0.01205630  0.42278398     0.88500
C148        C  0.01257052  0.91651246  0.58182787     0.88700
C149        C  0.30713206  0.52979654  0.97319750     0.30800
C150        C  0.30810206  0.52936065  0.07896966     0.30800
C151        C  0.30049179  0.48753618  0.00051088    -0.05400
C152        C  0.32462835  0.53602043  0.99775487    -0.06200
C153        C  0.29636482  0.56506508  0.00029836    -0.06000
C154        C  0.30127922  0.48775101  0.05381080    -0.05400
C155        C  0.32515669  0.53644272  0.05093688    -0.06200
C156        C  0.29724840  0.56570160  0.05362846    -0.06000
C157        C  0.29418573  0.44933126  0.07193549    -0.31400
N158        N  0.28896574  0.42554698  0.03169472     0.15100
C159        C  0.29209588  0.44898250  0.98833415    -0.31400
H160        H  0.28761090  0.43896257  0.95161618     0.17000
C161        C  0.34187499  0.54278793  0.06397120    -0.30400
N162        N  0.35148922  0.54515079  0.02067167     0.13800
C163        C  0.34102376  0.54078923  0.98012754    -0.30400
C164        C  0.28993968  0.60472678  0.06859326    -0.30700
N165        N  0.28339312  0.62544913  0.02732848     0.14300
H166        H  0.29015807  0.61882522  0.10621762     0.16900
C167        C  0.28718009  0.60146887  0.98539671    -0.30700
H168        H  0.28446281  0.61145712  0.94664641     0.16900
H169        H  0.34506275  0.53958293  0.94064885     0.16900
H170        H  0.29280706  0.43946808  0.11152171     0.17000
H171        H  0.34677094  0.54476993  0.10227246     0.16900
C172        C  0.31039489  0.52432119  0.47408251     0.30800
C173        C  0.31026812  0.53098383  0.57939769     0.30800
C174        C  0.30347150  0.48422149  0.50426317    -0.05400
C175        C  0.32792222  0.52984120  0.49963315    -0.06200
C176        C  0.30025503  0.56246862  0.49703852    -0.06000
C177        C  0.30353397  0.48746450  0.55735485    -0.05400
C178        C  0.32784124  0.53363492  0.55306324    -0.06200
C179        C  0.30026107  0.56563516  0.54993092    -0.06000
C180        C  0.29790070  0.44771131  0.57666080    -0.31400
N181        N  0.29365975  0.42108743  0.53729988     0.15100
C182        C  0.29745660  0.44290566  0.49305693    -0.31400
H183        H  0.29577268  0.42989912  0.45522291     0.17000
C184        C  0.34436242  0.52793097  0.56882407    -0.30400
N185        N  0.35438968  0.52172211  0.52745079     0.13800
C186        C  0.34443892  0.52067706  0.48573748    -0.30400
C187        C  0.29223888  0.60404217  0.56245598    -0.30700
N188        N  0.28712794  0.62406805  0.51888711     0.14300
H189        H  0.29075417  0.61733716  0.60036664     0.16900
C190        C  0.29200410  0.59915287  0.47859704    -0.30700
H191        H  0.29042389  0.60817309  0.43893163     0.16900
H192        H  0.34902212  0.51098201  0.44858282     0.16900
H193        H  0.29732858  0.43873950  0.61659248     0.17000
H194        H  0.34882937  0.52658754  0.60745528     0.16900
C195        C  0.21247716  0.02795682  0.08536708     0.30800
C196        C  0.21361964  0.02940464  0.97962504     0.30800
C197        C  0.21998683  0.98733160  0.05927572    -0.05400
C198        C  0.19513238  0.03067420  0.05818798    -0.06200
C199        C  0.22230700  0.06605623  0.06008481    -0.06000
C200        C  0.22094994  0.98860193  0.00614369    -0.05400
C201        C  0.19573103  0.03238195  0.00458174    -0.06200
C202        C  0.22265290  0.06741415  0.00685364    -0.06000
C203        C  0.22785985  0.94939448  0.99067740    -0.31400
N204        N  0.23071351  0.92431788  0.03272401     0.15100
C205        C  0.22560311  0.94654852  0.07458433    -0.31400
H206        H  0.22611833  0.93396921  0.11321548     0.17000
C207        C  0.17916001  0.03567494  0.98833735    -0.30400
N208        N  0.16865122  0.03262786  0.02940304     0.13800
C209        C  0.17819360  0.02911254  0.07191499    -0.30400
C210        C  0.22966205  0.10737673  0.99298647    -0.30700
N211        N  0.23401898  0.12927534  0.03587559     0.14300
H212        H  0.23118150  0.12008308  0.95457521     0.16900
C213        C  0.22958407  0.10434369  0.07700939    -0.30700
H214        H  0.23083746  0.11431306  0.11634083     0.16900
H215        H  0.17292546  0.02374439  0.10961162     0.16900
H216        H  0.23040702  0.93949116  0.95178670     0.17000
H217        H  0.17486968  0.04049517  0.94972030     0.16900
C218        C  0.21523064  0.02303090  0.58515208     0.30800
C219        C  0.21538926  0.02874469  0.47954278     0.30800
C220        C  0.22364674  0.98451260  0.55631425    -0.05400
C221        C  0.19769364  0.02420691  0.55922771    -0.06200
C222        C  0.22415163  0.06328462  0.56121748    -0.06000
C223        C  0.22393647  0.98815418  0.50314607    -0.05400
C224        C  0.19784861  0.02853932  0.50612356    -0.06200
C225        C  0.22407872  0.06690569  0.50802149    -0.06000
C226        C  0.23088847  0.95013663  0.48418006    -0.31400
N227        N  0.23442512  0.92287460  0.52381059     0.15100
C228        C  0.22950997  0.94274105  0.56762279    -0.31400
H229        H  0.22968578  0.92678171  0.60450679     0.17000
C230        C  0.18123099  0.02908331  0.49076233    -0.30400
N231        N  0.17093191  0.02259919  0.53194832     0.13800
C232        C  0.18092299  0.01916114  0.57392818    -0.30400
C233        C  0.23065415  0.10805828  0.49657597    -0.30700
N234        N  0.23568834  0.12758788  0.54024627     0.14300
H235        H  0.23131125  0.12394645  0.45970188     0.16900
C236        C  0.23149873  0.10079749  0.58000600    -0.30700
H237        H  0.23314063  0.10865884  0.61984514     0.16900
H238        H  0.17647865  0.01157827  0.61207835     0.16900
H239        H  0.23260599  0.94211439  0.44430063     0.17000
H240        H  0.17691270  0.03254014  0.45187319     0.16900
C241        C  0.22819871  0.99808153  0.72533799    -0.01200
C242        C  0.21715494  0.02472827  0.75386999     0.07400
C243        C  0.20623946  0.05288509  0.72724697    -0.07200
C244        C  0.20572804  0.05347777  0.67352599     0.04800
C245        C  0.21563433  0.02362560  0.64448925    -0.14400
C246        C  0.22765667  0.99859830  0.67169066    -0.07700
C247        C  0.21667691  0.02383021  0.81124849     0.05800
C248        C  0.23079637  0.03694824  0.83953951    -0.08900
C249        C  0.23039265  0.03685786  0.89337240     0.00800
C250        C  0.21510349  0.02738189  0.92048370     0.00600
C251        C  0.20185759  0.00914928  0.89173100    -0.12400
C252        C  0.20241821  0.00788928  0.83816684     0.01100
C253        C  0.24626650  0.04240637  0.91931563     0.40400
C254        C  0.18864283  0.98734167  0.81156556     0.37000
C255        C  0.24009067  0.96930146  0.75021436     0.36800
C256        C  0.19580660  0.08740169  0.64948111     0.37500
N257        N  0.25907009  0.04616577  0.93988543    -0.43300
N258        N  0.17774403  0.97044351  0.79002961    -0.43700
N259        N  0.18807215  0.11506763  0.63026304    -0.41100
N260        N  0.24959581  0.94610855  0.77008056    -0.42500
H261        H  0.23731649  0.98086189  0.65171226     0.13600
H262        H  0.19826186  0.07512340  0.74861651     0.10100
H263        H  0.24234085  0.04619761  0.81951366     0.11200
H264        H  0.19129392  0.99340774  0.91084696     0.17000
C265        C  0.20034795  0.04573801  0.22772336    -0.01200
C266        C  0.21457450  0.02954453  0.25369865     0.07400
C267        C  0.22859738  0.01610807  0.22478900    -0.07200
C268        C  0.22837106  0.01704561  0.17115814     0.04800
C269        C  0.21337441  0.02865935  0.14452580    -0.14400
C270        C  0.19998850  0.04589661  0.17409586    -0.07700
C271        C  0.21535461  0.02870726  0.31084362     0.05800
C272        C  0.20497075  0.99960276  0.33863165    -0.08900
C273        C  0.20531486  0.99792502  0.39229144     0.00800
C274        C  0.21546419  0.02791216  0.42018519     0.00600
C275        C  0.22698885  0.05381345  0.39144344    -0.12400
C276        C  0.22675067  0.05520841  0.33784507     0.01100
C277        C  0.19591980  0.96297951  0.41713120     0.40400
C278        C  0.23833523  0.08433625  0.31129834     0.37000
C279        C  0.18634215  0.06469855  0.25540501     0.36800
C280        C  0.24412586  0.00836398  0.14493845     0.37500
N281        N  0.18847103  0.93476246  0.43691792    -0.43300
N282        N  0.24759042  0.10763391  0.28985044    -0.43700
N283        N  0.25679576  0.00140019  0.12415980    -0.41100
N284        N  0.17519350  0.08011364  0.27773700    -0.42500
H285        H  0.18955108  0.06221587  0.15586579     0.13600
H286        H  0.23996418  0.00569464  0.24432036     0.10100
H287        H  0.19683093  0.97726571  0.31816402     0.11200
H288        H  0.23695006  0.07133186  0.40998881     0.17000
C289        C  0.28207208  0.30525052  0.50222089    -0.01200
C290        C  0.27052021  0.29361264  0.54119685     0.07400
C291        C  0.26700943  0.32359626  0.57983785    -0.07200
C292        C  0.27446635  0.36536428  0.57969291     0.04800
C293        C  0.28621661  0.37751177  0.54071808    -0.14400
C294        C  0.28993822  0.34656680  0.50258634    -0.07700
C295        C  0.26129821  0.25113856  0.54121964     0.05800
C296        C  0.26691505  0.21668650  0.57244919    -0.08900
C297        C  0.25850045  0.17610237  0.57330204     0.00800
C298        C  0.24403349  0.16971342  0.54287852     0.00600
C299        C  0.23835118  0.20461371  0.51212016    -0.12400
C300        C  0.24683223  0.24504956  0.51112168     0.01100
C301        C  0.26549398  0.14095023  0.60361760     0.40400
C302        C  0.24050204  0.27998423  0.47907125     0.37000
C303        C  0.28574349  0.27557612  0.46099087     0.36800
C304        C  0.26882472  0.39521659  0.61854549     0.37500
N305        N  0.27109147  0.11272549  0.62793147    -0.43300
N306        N  0.23551117  0.30813723  0.45345906    -0.43700
N307        N  0.26397743  0.41801988  0.65050372    -0.41100
N308        N  0.28855771  0.25180675  0.42782868    -0.42500
H309        H  0.29892636  0.35479476  0.47252970     0.13600
H310        H  0.25790575  0.31475491  0.60945216     0.10100
H311        H  0.27806639  0.22134034  0.59557761     0.11200
H312        H  0.22724640  0.20018739  0.48876942     0.17000
C313        C  0.24134428  0.80247490  0.54700331    -0.01200
C314        C  0.25628946  0.79483683  0.51866490     0.07400
C315        C  0.26374143  0.82975247  0.49132528    -0.07200
C316        C  0.25661895  0.87183314  0.49210793     0.04800
C317        C  0.24167867  0.87957387  0.52049001    -0.14400
C318        C  0.23422403  0.84458838  0.54781786    -0.07700
C319        C  0.26455744  0.75098384  0.51793997     0.05800
C320        C  0.25633055  0.71557709  0.49465003    -0.08900
C321        C  0.26377408  0.67381378  0.49351310     0.00800
C322        C  0.27959199  0.66693132  0.51648274     0.00600
C323        C  0.28782296  0.70228301  0.53961115    -0.12400
C324        C  0.28055255  0.74413824  0.54008949     0.01100
C325        C  0.25475290  0.63810897  0.47027053     0.40400
C326        C  0.28960646  0.77932081  0.56438518     0.37000
C327        C  0.23338868  0.76794830  0.57673870     0.36800
C328        C  0.26534804  0.90697060  0.46561534     0.37500
N329        N  0.24754159  0.60942294  0.45159574    -0.43300
N330        N  0.29693040  0.80749318  0.58368853    -0.43700
N331        N  0.27238679  0.93512270  0.44439076    -0.41100
N332        N  0.22700660  0.74030001  0.60060617    -0.42500
H333        H  0.22280204  0.85030843  0.56993367     0.13600
H334        H  0.27529439  0.82416119  0.46975751     0.10100
H335        H  0.24406809  0.72061906  0.47741909     0.11200
H336        H  0.29999359  0.69700445  0.55729523     0.17000
C337        C  0.26472361  0.21909579  0.06654204    -0.01200
C338        C  0.25759092  0.25525274  0.04071826     0.07400
C339        C  0.24244864  0.24965574  0.01410163    -0.07200
C340        C  0.23452180  0.20850082  0.01227555     0.04800
C341        C  0.24170486  0.17214720  0.03771109    -0.14400
C342        C  0.25667415  0.17802564  0.06527949    -0.07700
C343        C  0.26586189  0.29905795  0.04016717     0.06200
C344        C  0.27976064  0.30639995  0.00761547    -0.08900
C345        C  0.28761188  0.34764898  0.00496956     0.00800
C346        C  0.28133060  0.38263005  0.03449297     0.00600
C347        C  0.26771755  0.37490016  0.06810690    -0.12400
C348        C  0.26001875  0.33343823  0.07129434     0.01100
C349        C  0.30266842  0.35276112  0.97399261     0.40400
C350        C  0.24647503  0.32646828  0.10771265     0.37000
C351        C  0.28026929  0.22355925  0.09447083     0.36800
C352        C  0.21877642  0.20455528  0.98536176     0.37500
N353        N  0.31484632  0.35688036  0.94961529    -0.43300
N354        N  0.23572778  0.32073285  0.13726075    -0.43700
N355        N  0.20614712  0.20128717  0.96376509    -0.41100
N356        N  0.29275189  0.22733775  0.11671300    -0.42500
H357        H  0.26220459  0.15023452  0.08500696     0.13600
H358        H  0.23688108  0.27748165  0.99447548     0.10100
H359        H  0.28454093  0.27972845  0.98453037     0.11200
H360        H  0.26308955  0.40139594  0.09168669     0.17000
C361        C  0.23543217  0.80281510  0.04751755    -0.01200
C362        C  0.25270697  0.79692473  0.03471683     0.07400
C363        C  0.26254669  0.83402561  0.02197788    -0.07200
C364        C  0.25550452  0.87613143  0.02201480     0.04800
C365        C  0.23823620  0.88158296  0.03328567    -0.14400
C366        C  0.22837331  0.84496268  0.04654208    -0.07700
C367        C  0.26070331  0.75258094  0.03364295     0.05800
C368        C  0.25350765  0.71947374  0.00369843    -0.08900
C369        C  0.26068919  0.67749885  0.00137909     0.00800
C370        C  0.27568761  0.66831255  0.02813279     0.00600
C371        C  0.28293296  0.70144679  0.05780832    -0.12400
C372        C  0.27556677  0.74305760  0.06112900     0.01100
C373        C  0.25194570  0.64388378  0.97352016     0.40400
C374        C  0.28331230  0.77489708  0.09411039     0.37000
C375        C  0.22475727  0.76645164  0.06288981     0.36800
C376        C  0.26629337  0.91363351  0.01261241     0.37500
N377        N  0.24480922  0.61697594  0.95140233    -0.43300
N378        N  0.28960218  0.80030381  0.12049512    -0.43700
N379        N  0.27495511  0.94381363  0.00572835    -0.41100
N380        N  0.21612746  0.73740902  0.07508276    -0.42500
H381        H  0.21512977  0.84949297  0.05613742     0.13600
H382        H  0.27579513  0.83011510  0.01204577     0.10100
H383        H  0.24214870  0.72637278  0.98219804     0.11200
H384        H  0.29443589  0.69469607  0.07863499     0.17000
C385        C  0.30535056  0.49723415  0.83002597    -0.01200
C386        C  0.30749259  0.53774311  0.80437335     0.07400
C387        C  0.31075833  0.57509586  0.83378531    -0.07200
C388        C  0.31155027  0.57264662  0.88738913     0.04800
C389        C  0.30775051  0.53271845  0.91383849    -0.14400
C390        C  0.30590577  0.49492859  0.88358698    -0.07700
C391        C  0.30772041  0.54066624  0.74703443     0.05800
C392        C  0.29349058  0.52738911  0.71925432    -0.08900
C393        C  0.29379742  0.52648751  0.66554145     0.00800
C394        C  0.30890946  0.53641163  0.63806085     0.00600
C395        C  0.32218015  0.55533189  0.66597087    -0.12400
C396        C  0.32194429  0.55636284  0.71949947     0.01100
C397        C  0.27810773  0.51830535  0.63953249     0.40400
C398        C  0.33669601  0.57291439  0.74512729     0.37000
C399        C  0.30343051  0.45690210  0.80209159     0.36800
C400        C  0.31753270  0.61109444  0.91359020     0.37500
N401        N  0.26554429  0.51266847  0.61823861    -0.43300
N402        N  0.34850575  0.58630246  0.76563471    -0.43700
N403        N  0.32248835  0.64185705  0.93434767    -0.41100
N404        N  0.30185680  0.42465031  0.77962964    -0.42500
H405        H  0.30611882  0.46314508  0.90053431     0.13600
H406        H  0.31313057  0.60619409  0.81474001     0.10100
H407        H  0.28203236  0.51806511  0.73963871     0.11200
H408        H  0.33258226  0.57116210  0.64645562     0.17000
C409        C  0.32315271  0.53388138  0.33060262    -0.01200
C410        C  0.30856252  0.51925724  0.30523573     0.07400
C411        C  0.29433353  0.50783661  0.33519392    -0.07200
C412        C  0.29453720  0.51055860  0.38886713     0.04800
C413        C  0.30954979  0.52250612  0.41481398    -0.14400
C414        C  0.32331546  0.53667053  0.38409061    -0.07700
C415        C  0.30760285  0.51946365  0.24774743     0.05800
C416        C  0.31930680  0.49533229  0.21863368    -0.08900
C417        C  0.31944725  0.49732083  0.16482496     0.00800
C418        C  0.30813303  0.52542642  0.13823965     0.00600
C419        C  0.29527224  0.54519594  0.16780700    -0.12400
C420        C  0.29522883  0.54375351  0.22136817     0.01100
C421        C  0.33056700  0.46772104  0.13806258     0.40400
C422        C  0.28240564  0.56831375  0.24824321     0.37000
C423        C  0.33796595  0.54826151  0.30244094     0.36800
C424        C  0.27875792  0.50381940  0.41592578     0.37500
N425        N  0.33932478  0.44361781  0.11657986    -0.43300
N426        N  0.27211807  0.58795403  0.26976811    -0.43700
N427        N  0.26609096  0.49881848  0.43765851    -0.41100
N428        N  0.34986578  0.55943883  0.27980497    -0.42500
H429        H  0.33398276  0.55278632  0.40095246     0.13600
H430        H  0.28281620  0.49770436  0.31649379     0.10100
H431        H  0.32829949  0.47441339  0.23808345     0.11200
H432        H  0.28457939  0.56024588  0.14975588     0.17000
C433        C  0.08742129  0.03208770  0.50608564    -0.01200
C434        C  0.09858764  0.99672146  0.51473858     0.07400
C435        C  0.09181013  0.95445796  0.52174463    -0.07200
C436        C  0.07428447  0.94703813  0.52035354     0.04800
C437        C  0.06306206  0.98233957  0.51166459    -0.14400
C438        C  0.06985263  0.02474332  0.50494560    -0.07700
C439        C  0.11729024  0.00325645  0.51856313     0.05800
C440        C  0.12381902  0.02662001  0.55993571    -0.08900
C441        C  0.14133656  0.03247812  0.56591850     0.00800
C442        C  0.15278852  0.01564761  0.52921451     0.00600
C443        C  0.14615214  0.99201194  0.48798800    -0.12400
C444        C  0.12869123  0.98529062  0.48276930     0.01100
C445        C  0.14703222  0.05614484  0.60992053     0.40400
C446        C  0.12281443  0.95984918  0.44024069     0.37000
C447        C  0.09375620  0.07596054  0.49688682     0.36800
C448        C  0.06810696  0.90321630  0.53068031     0.37500
N449        N  0.15136097  0.07463111  0.64589535    -0.43300
N450        N  0.11821738  0.93913754  0.40626396    -0.43700
N451        N  0.06317098  0.86812541  0.53931825    -0.41100
N452        N  0.09886331  0.11106894  0.48931857    -0.42500
H453        H  0.06142787  0.05211431  0.49782564     0.13600
H454        H  0.10026465  0.92720348  0.52921377     0.10100
H455        H  0.11515894  0.03989757  0.58808830     0.11200
H456        H  0.15468948  0.97809226  0.46001507     0.17000
C457        C  0.08623235  0.99781756  0.04878166    -0.01200
C458        C  0.09572426  0.03339874  0.02911284     0.07400
C459        C  0.08723167  0.06853159  0.00607219    -0.07200
C460        C  0.06956708  0.06817776  0.00103933     0.04800
C461        C  0.05991500  0.03179417  0.01944274    -0.14400
C462        C  0.06856723  0.99727052  0.04396660    -0.07700
C463        C  0.11456417  0.03361430  0.03001968     0.05800
C464        C  0.12344564  0.00560866  0.99714396    -0.08900
C465        C  0.14118679  0.00495481  0.99627556     0.00800
C466        C  0.15039578  0.03288285  0.02863374     0.00600
C467        C  0.14148211  0.06054339  0.06192592    -0.12400
C468        C  0.12373234  0.06121642  0.06273747     0.01100
C469        C  0.14962327  0.97384862  0.96369999     0.40400
C470        C  0.11520210  0.08964894  0.09831138     0.37000
C471        C  0.09439417  0.96158844  0.07436020     0.36800
C472        C  0.06191877  0.10574388  0.97656960     0.37500
N473        N  0.15635753  0.94875564  0.93766836    -0.43300
N474        N  0.10841098  0.11236409  0.12703468    -0.43700
N475        N  0.05588138  0.13595055  0.95688895    -0.41100
N476        N  0.10097452  0.93265335  0.09496190    -0.42500
H477        H  0.06157731  0.96929007  0.05893473     0.13600
H478        H  0.09450039  0.09606903  0.99111322     0.10100
H479        H  0.11646334  0.98401394  0.97226185     0.11200
H480        H  0.14845540  0.08176435  0.08720747     0.17000
C481        C  0.02991144  0.87364772  0.70250976    -0.01200
C482        C  0.01582252  0.88090687  0.73463193     0.07400
C483        C  0.99972341  0.88491651  0.71307272    -0.07200
C484        C  0.99803837  0.88988146  0.66038017     0.04800
C485        C  0.01261376  0.89086380  0.62920953    -0.14400
C486        C  0.02825750  0.87915143  0.64978551    -0.07700
C487        C  0.01809617  0.89920255  0.78614633     0.05800
C488        C  0.02639332  0.93986156  0.78922424    -0.08900
C489        C  0.02573847  0.96451458  0.83371124     0.00800
C490        C  0.01651194  0.94861761  0.87628204     0.00600
C491        C  0.00917821  0.90649252  0.87440262    -0.12400
C492        C  0.00985174  0.88181936  0.82959727     0.01100
C493        C  0.03467983  0.00589938  0.83448978     0.40400
C494        C  0.00187597  0.83917925  0.82869856     0.37000
C495        C  0.04641372  0.86515334  0.72338806     0.36800
C496        C  0.98150563  0.89828635  0.63949100     0.37500
N497        N  0.04188894  0.03898572  0.83515732    -0.43300
N498        N  0.99558571  0.80485667  0.82806030    -0.43700
N499        N  0.96826456  0.90467565  0.62257316    -0.41100
N500        N  0.05961111  0.85803612  0.74020917    -0.42500
H501        H  0.03945501  0.87913315  0.62561304     0.13600
H502        H  0.98875891  0.88967357  0.73753173     0.10100
H503        H  0.03272975  0.95345978  0.75577541     0.11200
H504        H  0.00234456  0.89353766  0.90725701     0.17000
C505        C  0.01784246  0.04799216  0.28653608    -0.01200
C506        C  0.00656839  0.08372027  0.28272618     0.07400
C507        C  0.99775844  0.09783269  0.32597011    -0.07200
C508        C  0.99968024  0.07603860  0.37272561     0.04800
C509        C  0.01057896  0.03931270  0.37621696    -0.14400
C510        C  0.01982189  0.02637216  0.33311113    -0.07700
C511        C  0.00164487  0.10003472  0.23202054     0.05800
C512        C  0.98732120  0.08065299  0.21072593    -0.08900
C513        C  0.98635506  0.07542162  0.15814322     0.00800
C514        C  0.99980570  0.09035311  0.12683661     0.00600
C515        C  0.01239562  0.11717673  0.14736438    -0.12400
C516        C  0.01338816  0.12212994  0.20025097     0.01100
C517        C  0.97268478  0.04945406  0.13786613     0.40400
C518        C  0.02761887  0.14505975  0.22154953     0.37000
C519        C  0.02645313  0.03062790  0.24223989     0.36800
C520        C  0.98927641  0.08988612  0.41510962     0.37500
N521        N  0.96179258  0.02844599  0.12173102    -0.43300
N522        N  0.03896735  0.16352819  0.23890526    -0.43700
N523        N  0.98088583  0.10090497  0.44899890    -0.41100
N524        N  0.03323277  0.01666123  0.20664457    -0.42500
H525        H  0.02820179  0.99827252  0.33535676     0.13600
H526        H  0.98874737  0.12448131  0.32252767     0.10100
H527        H  0.97811605  0.06430462  0.23529211     0.11200
H528        H  0.02260461  0.12927364  0.12313776     0.17000
C529        C  0.43442513  0.47068951  0.50246300    -0.01200
C530        C  0.42684557  0.51168282  0.51215286     0.07400
C531        C  0.43706618  0.54925181  0.51507426    -0.07200
C532        C  0.45458317  0.54660313  0.50792917     0.04800
C533        C  0.46223634  0.50538667  0.49963210    -0.14400
C534        C  0.45201694  0.46772800  0.49726794    -0.07700
C535        C  0.40823059  0.51617925  0.51756159     0.05800
C536        C  0.39976318  0.49400084  0.55743034    -0.08900
C537        C  0.38210446  0.49577598  0.56216676     0.00800
C538        C  0.37261509  0.51992394  0.52611856     0.00600
C539        C  0.38123055  0.54302184  0.48718567    -0.12400
C540        C  0.39882963  0.54154130  0.48277527     0.01100
C541        C  0.37416610  0.47138875  0.60327059     0.40400
C542        C  0.40691163  0.56547230  0.44145947     0.37000
C543        C  0.42433887  0.43171217  0.49510758     0.36800
C544        C  0.46438479  0.58660006  0.50996406     0.37500
N545        N  0.36791135  0.45210271  0.63668149    -0.43300
N546        N  0.41344253  0.58481864  0.40858966    -0.43700
N547        N  0.47222761  0.61868652  0.51115586    -0.41100
N548        N  0.41619751  0.40065305  0.48878624    -0.42500
H549        H  0.45774821  0.43609994  0.48979370     0.13600
H550        H  0.43128698  0.58085385  0.52238500     0.10100
H551        H  0.40699119  0.47488452  0.58461670     0.11200
H552        H  0.37411159  0.56240132  0.46001144     0.17000
C553        C  0.39680535  0.51892502  0.05039733    -0.01200
C554        C  0.40574970  0.54498734  0.01430290     0.07400
C555        C  0.39651196  0.57197401  0.98100319    -0.07200
C556        C  0.37874858  0.57294354  0.98278658     0.04800
C557        C  0.36979522  0.54660029  0.01867635    -0.14400
C558        C  0.37907688  0.52021767  0.05252507    -0.07700
C559        C  0.42460417  0.54284501  0.00903181     0.05800
C560        C  0.43216127  0.50264755  0.99675069    -0.08900
C561        C  0.44974380  0.49881045  0.99084588     0.00800
C562        C  0.46036229  0.53587122  0.99767813     0.00600
C563        C  0.45273280  0.57620252  0.00982375    -0.12400
C564        C  0.43508629  0.58005243  0.01493504     0.01100
C565        C  0.45638947  0.45607993  0.97845738     0.40400
C566        C  0.42807265  0.62253939  0.02652546     0.37000
C567        C  0.40549422  0.49036870  0.08565077     0.36800
C568        C  0.37011676  0.60180736  0.94782891     0.37500
N569        N  0.46161513  0.42177988  0.96828157    -0.43300
N570        N  0.42249125  0.65673046  0.03540759    -0.43700
N571        N  0.36334779  0.62492772  0.91938273    -0.41100
N572        N  0.41237303  0.46717909  0.11377441    -0.42500
H573        H  0.37240123  0.49961360  0.07995458     0.13600
H574        H  0.40321047  0.59185102  0.95286885     0.10100
H575        H  0.42421412  0.47401101  0.99133056     0.11200
H576        H  0.46055847  0.60512189  0.01468123     0.17000
C577        C  0.53171729  0.62541617  0.78936209    -0.01200
C578        C  0.51835017  0.62234343  0.75422237     0.07400
C579        C  0.50170047  0.61786851  0.77271382    -0.07200
C580        C  0.49861427  0.60901275  0.82436095     0.04800
C581        C  0.51230277  0.60524229  0.85791412    -0.14400
C582        C  0.52859147  0.61674109  0.84105894    -0.07700
C583        C  0.52160430  0.60901225  0.70081480     0.05800
C584        C  0.53033447  0.56948720  0.69373021    -0.08900
C585        C  0.52996948  0.54788444  0.64721490     0.00800
C586        C  0.52050043  0.56550688  0.60659208     0.00600
C587        C  0.51305845  0.60710993  0.61198435    -0.12400
C588        C  0.51354177  0.62894208  0.65886715     0.01100
C589        C  0.53920758  0.50723660  0.64268044     0.40400
C590        C  0.50540324  0.67106585  0.66357685     0.37000
C591        C  0.54894519  0.63238486  0.77240703     0.36800
C592        C  0.48152624  0.60019546  0.84142514     0.37500
N593        N  0.54663657  0.47472550  0.63913533    -0.43300
N594        N  0.49898907  0.70499847  0.66727294    -0.43700
N595        N  0.46782866  0.59340038  0.85527783    -0.41100
N596        N  0.56276455  0.63779276  0.75886228    -0.42500
H597        H  0.53913122  0.61429576  0.86714121     0.13600
H598        H  0.49130434  0.61590419  0.74612342     0.10100
H599        H  0.53658667  0.55384171  0.72572621     0.11200
H600        H  0.50612820  0.62148830  0.58052419     0.17000
C601        C  0.49357883  0.42120217  0.27336496    -0.01200
C602        C  0.50786600  0.39897637  0.25392427     0.07400
C603        C  0.51991015  0.38221585  0.28790814    -0.07200
C604        C  0.51906753  0.39269638  0.33976477     0.04800
C605        C  0.50613541  0.42066738  0.35727590    -0.14400
C606        C  0.49291123  0.43213811  0.32480659    -0.07700
C607        C  0.51301055  0.40741746  0.20048879     0.05800
C608        C  0.52499246  0.44081515  0.19262233    -0.08900
C609        C  0.52608778  0.46296765  0.14602150     0.00800
C610        C  0.51503473  0.45151884  0.10630243     0.00600
C611        C  0.50465990  0.41425221  0.11200967    -0.12400
C612        C  0.50358343  0.39208836  0.15897082     0.01100
C613        C  0.53832597  0.49804434  0.14063897     0.40400
C614        C  0.49205361  0.35559226  0.16477010     0.37000
C615        C  0.48076596  0.43902152  0.24020472     0.36800
C616        C  0.53266678  0.37913327  0.37270092     0.37500
N617        N  0.54820875  0.52596826  0.13662326    -0.43300
N618        N  0.48287110  0.32616067  0.16927505    -0.43700
N619        N  0.54352902  0.36825835  0.39921662    -0.41100
N620        N  0.47052771  0.45339504  0.21364670    -0.42500
H621        H  0.48285735  0.45320664  0.33862565     0.13600
H622        H  0.53090319  0.36521917  0.27307724     0.10100
H623        H  0.53249142  0.45221845  0.22436965     0.11200
H624        H  0.49655238  0.40428901  0.08100553     0.17000
C625        C  0.89599876  0.91745242  0.51430085    -0.01200
C626        C  0.90671367  0.93981934  0.47947611     0.07400
C627        C  0.89940110  0.96436100  0.44001956    -0.07200
C628        C  0.88175935  0.96851211  0.43601374     0.04800
C629        C  0.87087870  0.94714902  0.47170944    -0.14400
C630        C  0.87833248  0.92106314  0.51006731    -0.07700
C631        C  0.92550843  0.94090520  0.48545997     0.05800
C632        C  0.93588776  0.91754291  0.45162976    -0.08900
C633        C  0.95364605  0.92004147  0.45441927     0.00800
C634        C  0.96144273  0.94702063  0.49143052     0.00600
C635        C  0.95087407  0.97008553  0.52538542    -0.12400
C636        C  0.93318320  0.96714144  0.52277634     0.01100
C637        C  0.96338456  0.89540097  0.41776313     0.40400
C638        C  0.92310643  0.99234916  0.55804783     0.37000
C639        C  0.90288808  0.89118029  0.55515731     0.36800
C640        C  0.87546815  0.99735235  0.39678578     0.37500
N641        N  0.97111996  0.87551090  0.38832334    -0.43300
N642        N  0.91500126  0.01249732  0.58630671    -0.43700
N643        N  0.87087463  0.02067739  0.36478138    -0.41100
N644        N  0.90843104  0.87021301  0.58796645    -0.42500
H645        H  0.87030584  0.90386880  0.53740766     0.13600
H646        H  0.90758024  0.98189886  0.41331476     0.10100
H647        H  0.93007123  0.89752865  0.42260951     0.11200
H648        H  0.95642007  0.99078334  0.55422746     0.17000
C649        C  0.80885160  0.92500720  0.67116849    -0.01200
C650        C  0.81104442  0.96442725  0.69808703     0.07400
C651        C  0.81481597  0.00270353  0.66991214    -0.07200
C652        C  0.81535681  0.00257972  0.61612417     0.04800
C653        C  0.81078967  0.96427447  0.58870615    -0.14400
C654        C  0.80916910  0.92511389  0.61751379    -0.07700
C655        C  0.80981168  0.96619905  0.75536083     0.05800
C656        C  0.82154570  0.94358947  0.78562077    -0.08900
C657        C  0.82059279  0.94438685  0.83933806     0.00800
C658        C  0.80835490  0.97075762  0.86468218     0.00600
C659        C  0.79581553  0.99024549  0.83378556    -0.12400
C660        C  0.79651492  0.98842363  0.78016481     0.01100
C661        C  0.83188547  0.91596739  0.86709495     0.40400
C662        C  0.78287703  0.00751977  0.75128790     0.37000
C663        C  0.80600610  0.88395445  0.69778126     0.36800
C664        C  0.82160850  0.04156013  0.59046299     0.37500
N665        N  0.84095555  0.89301807  0.88909893    -0.43300
N666        N  0.77188694  0.02236419  0.72801437    -0.43700
N667        N  0.82675527  0.07272302  0.57002414    -0.41100
N668        N  0.80373322  0.85105685  0.71916555    -0.42500
H669        H  0.80880777  0.89385903  0.59859415     0.13600
H670        H  0.81763690  0.03272989  0.69012442     0.10100
H671        H  0.83135372  0.92449473  0.76712387     0.11200
H672        H  0.78490147  0.00545729  0.85110565     0.17000
C673        C  0.79105622  0.95475823  0.28582628    -0.01200
C674        C  0.80390034  0.97480951  0.25580868     0.07400
C675        C  0.81675027  0.99749816  0.28146514    -0.07200
C676        C  0.81756942  0.99756098  0.33518190     0.04800
C677        C  0.80652228  0.97067677  0.36491377    -0.14400
C678        C  0.79239795  0.95328890  0.33931842    -0.07700
C679        C  0.80398204  0.97394129  0.19818703     0.05800
C680        C  0.78993681  0.98881357  0.17046401    -0.08900
C681        C  0.78972632  0.98784260  0.11671715     0.00800
C682        C  0.80452635  0.97640795  0.08858010     0.00600
C683        C  0.81789329  0.95784431  0.11669582    -0.12400
C684        C  0.81780360  0.95678912  0.17035438     0.01100
C685        C  0.77363311  0.99463732  0.09240681     0.40400
C686        C  0.83174856  0.93583786  0.19594981     0.37000
C687        C  0.77618042  0.93593057  0.26309879     0.36800
C688        C  0.82831470  0.02976061  0.35862300     0.37500
N689        N  0.76064038  0.99969727  0.07328684    -0.43300
N690        N  0.84288493  0.91873799  0.21633922    -0.43700
N691        N  0.83644921  0.05662820  0.37747692    -0.41100
N692        N  0.76408028  0.92152373  0.24516396    -0.42500
H693        H  0.78187926  0.93996632  0.36093955     0.13600
H694        H  0.82581969  0.01669069  0.25941483     0.10100
H695        H  0.77885004  0.00032129  0.19087100     0.11200
H696        H  0.82838182  0.94280601  0.09676096     0.17000
C697        C  0.93276401  0.97218787  0.97465731    -0.01200
C698        C  0.92282789  0.01028437  0.98038103     0.07400
C699        C  0.93082686  0.05052696  0.98952679    -0.07200
C700        C  0.94846406  0.05325921  0.99310305     0.04800
C701        C  0.95845221  0.01519194  0.98685182    -0.14400
C702        C  0.95041112  0.97488558  0.97805696    -0.07700
C703        C  0.90404986  0.00830843  0.98027069     0.05800
C704        C  0.89575758  0.98453760  0.01904942    -0.08900
C705        C  0.87811728  0.98107931  0.02045349     0.00800
C706        C  0.86830906  0.00252828  0.98278599     0.00600
C707        C  0.87669204  0.02671126  0.94422211    -0.12400
C708        C  0.89437806  0.02966691  0.94261747     0.01100
C709        C  0.87065863  0.95340868  0.05955999     0.40400
C710        C  0.90231675  0.05355921  0.90106941     0.37000
C711        C  0.92512305  0.93008291  0.96466881     0.36800
C712        C  0.95585787  0.09488742  0.00670759     0.37500
N713        N  0.86482354  0.93124880  0.09120775    -0.43300
N714        N  0.90861973  0.07264502  0.86759923    -0.43700
N715        N  0.96170803  0.12819172  0.01814991    -0.41100
N716        N  0.91897062  0.89636241  0.95670675    -0.42500
H717        H  0.95794612  0.94548125  0.97341142     0.13600
H718        H  0.92321918  0.07965570  0.99526555     0.10100
H719        H  0.90316906  0.96806062  0.04806630     0.11200
H720        H  0.86937877  0.04316974  0.91501670     0.17000
C721        C  0.73431747  0.23531702  0.50795112    -0.01200
C722        C  0.74989411  0.22602013  0.48384099     0.07400
C723        C  0.75844592  0.25959153  0.45729184    -0.07200
C724        C  0.75181677  0.30209724  0.45479961     0.04800
C725        C  0.73643452  0.31189026  0.47996757    -0.14400
C726        C  0.72785232  0.27821206  0.50655451    -0.07700
C727        C  0.75785031  0.18194555  0.48666645     0.05800
C728        C  0.75136528  0.14750399  0.45741197    -0.08900
C729        C  0.75956496  0.10669227  0.45586971     0.00800
C730        C  0.77444664  0.09995209  0.48422769     0.00600
C731        C  0.78050304  0.13392871  0.51488588    -0.12400
C732        C  0.77246354  0.17474391  0.51597307     0.01100
C733        C  0.75233924  0.07208228  0.42578983     0.40400
C734        C  0.77959939  0.20896897  0.54688769     0.37000
C735        C  0.72483551  0.20140047  0.53432237     0.36800
C736        C  0.76131296  0.33537001  0.42743208     0.37500
N737        N  0.74649686  0.04439012  0.40163669    -0.43300
N738        N  0.78540924  0.23632974  0.57159059    -0.43700
N739        N  0.76887448  0.36195550  0.40512134    -0.41100
N740        N  0.71719008  0.17405275  0.55505439    -0.42500
H741        H  0.71597741  0.28542451  0.52563270     0.13600
H742        H  0.77041317  0.25251093  0.43859827     0.10100
H743        H  0.74008425  0.15283446  0.43500466     0.11200
H744        H  0.79190358  0.12888388  0.53682317     0.17000
C745        C  0.76078255  0.66345838  0.51518292    -0.01200
C746        C  0.75376252  0.69676167  0.48405628     0.07400
C747        C  0.73952359  0.68672148  0.45460976    -0.07200
C748        C  0.73247465  0.64437479  0.45526591     0.04800
C749        C  0.73985047  0.61081096  0.48513361    -0.14400
C750        C  0.75381133  0.62107876  0.51546529    -0.07700
C751        C  0.76133885  0.74176624  0.48112764     0.05800
C752        C  0.77848838  0.74637310  0.46737557    -0.08900
C753        C  0.78632793  0.78762509  0.46660116     0.00800
C754        C  0.77692048  0.82542013  0.47789566     0.00600
C755        C  0.75977918  0.82131959  0.49112614    -0.12400
C756        C  0.75194086  0.77988585  0.49299106     0.01100
C757        C  0.80428394  0.79061020  0.45701537     0.40400
C758        C  0.73447298  0.77719432  0.50915606     0.37000
C759        C  0.77505425  0.67209097  0.54759128     0.36800
C760        C  0.71734739  0.63652013  0.42636597     0.37500
N761        N  0.81871553  0.79347880  0.45009559    -0.43300
N762        N  0.72047506  0.77500750  0.52217050    -0.43700
N763        N  0.70518358  0.63014841  0.40334301    -0.41100
N764        N  0.78653133  0.67922243  0.57332198    -0.42500
H765        H  0.75949732  0.59553767  0.53861866     0.13600
H766        H  0.73396215  0.71197207  0.43074736     0.10100
H767        H  0.78586370  0.71752472  0.45818548     0.11200
H768        H  0.75262538  0.85047173  0.50048541     0.17000
C769        C  0.62712800  0.45616078  0.42245320    -0.01200
C770        C  0.61761614  0.48254211  0.45583626     0.07400
C771        C  0.62593851  0.50787950  0.49221140    -0.07200
C772        C  0.64355658  0.50662862  0.49642112     0.04800
C773        C  0.65317130  0.47949310  0.46384719    -0.14400
C774        C  0.64480262  0.45499318  0.42643532    -0.07700
C775        C  0.59890307  0.48168753  0.45640317     0.05800
C776        C  0.59070499  0.45347091  0.49098846    -0.08900
C777        C  0.57306586  0.45298955  0.49552761     0.00800
C778        C  0.56321726  0.48203188  0.46541407     0.00600
C779        C  0.57159538  0.50950835  0.42972250    -0.12400
C780        C  0.58925386  0.50933216  0.42485578     0.01100
C781        C  0.56568013  0.42258894  0.53196596     0.40400
C782        C  0.59719455  0.53797782  0.38757209     0.37000
C783        C  0.61890705  0.42927257  0.38494896     0.36800
C784        C  0.65149866  0.53415443  0.53378676     0.37500
N785        N  0.55987085  0.39792239  0.56104088    -0.43300
N786        N  0.60348166  0.56085181  0.35743828    -0.43700
N787        N  0.65790182  0.55607434  0.56385457    -0.41100
N788        N  0.61217928  0.40779652  0.35509277    -0.42500
H789        H  0.65206395  0.43409932  0.40124348     0.13600
H790        H  0.61859780  0.52826330  0.51783284     0.10100
H791        H  0.59819196  0.43192310  0.51493777     0.11200
H792        H  0.56437983  0.53148559  0.40561588     0.17000
C793        C  0.77752649  0.19332529  0.00922068    -0.01200
C794        C  0.76560276  0.20544814  0.97221431     0.07400
C795        C  0.76140890  0.17604935  0.93365909    -0.07200
C796        C  0.76867383  0.13431850  0.93204350     0.04800
C797        C  0.78074272  0.12186985  0.96897443    -0.14400
C798        C  0.78508143  0.15191411  0.00715114    -0.07700
C799        C  0.75723242  0.24864215  0.97305009     0.05800
C800        C  0.76260560  0.28101165  0.93832744    -0.08900
C801        C  0.75507048  0.32248180  0.93783669     0.00800
C802        C  0.74151682  0.33150409  0.97172752     0.00600
C803        C  0.73618679  0.29874703  0.00638144    -0.12400
C804        C  0.74400734  0.25770525  0.00759116     0.01100
C805        C  0.76216341  0.35556215  0.90419743     0.40400
C806        C  0.73828606  0.22546631  0.04459344     0.37000
C807        C  0.78204437  0.22279778  0.04973297     0.36800
C808        C  0.76269008  0.10421348  0.89400914     0.37500
N809        N  0.76795927  0.38189381  0.87714439    -0.43300
N810        N  0.73375085  0.19981848  0.07454101    -0.43700
N811        N  0.75785685  0.08014828  0.86347540    -0.41100
N812        N  0.78553306  0.24650593  0.08224279    -0.42500
H813        H  0.79430418  0.14288200  0.03567832     0.13600
H814        H  0.75207661  0.18540464  0.90551026     0.10100
H815        H  0.77295862  0.27405434  0.91224644     0.11200
H816        H  0.72583023  0.30524250  0.03253133     0.17000
C817        C  0.74045162  0.69785376  0.96381051    -0.01200
C818        C  0.75650889  0.70411823  0.98558797     0.07400
C819        C  0.76467038  0.66869710  0.00928489    -0.07200
C820        C  0.75713286  0.62715471  0.01087061     0.04800
C821        C  0.74115775  0.62080775  0.98880506    -0.14400
C822        C  0.73292931  0.65626653  0.96544284    -0.07700
C823        C  0.76508058  0.74728859  0.98354743     0.05800
C824        C  0.75816158  0.78214168  0.01118813    -0.08900
C825        C  0.76583284  0.82351228  0.01012234     0.00800
C826        C  0.78080775  0.83027305  0.98138277     0.00600
C827        C  0.78761826  0.79547621  0.95328086    -0.12400
C828        C  0.77989488  0.75411004  0.95419476     0.01100
C829        C  0.75768523  0.85892078  0.03691487     0.40400
C830        C  0.78711630  0.71948650  0.92378978     0.37000
C831        C  0.73179970  0.73318593  0.93797898     0.36800
C832        C  0.76640109  0.59083633  0.03241172     0.37500
N833        N  0.75112343  0.88730967  0.05834515    -0.43300
N834        N  0.79286006  0.69172752  0.89934669    -0.43700
N835        N  0.77380502  0.56151754  0.04937534    -0.41100
N836        N  0.72491479  0.76156543  0.91724758    -0.42500
H837        H  0.72073882  0.65113847  0.94789835     0.13600
H838        H  0.77705388  0.67342868  0.02580401     0.10100
H839        H  0.74667390  0.77701273  0.03332788     0.11200
H840        H  0.79903753  0.80069323  0.93091975     0.17000
C841        C  0.72608920  0.50231112  0.78224593    -0.01200
C842        C  0.71488160  0.47438793  0.75634883     0.07400
C843        C  0.70440062  0.44644795  0.78531199    -0.07200
C844        C  0.70465514  0.44666114  0.83893426     0.04800
C845        C  0.71497489  0.47706853  0.86561440    -0.14400
C846        C  0.72626405  0.50284157  0.83591675    -0.07700
C847        C  0.71448811  0.47213378  0.69922260     0.05800
C848        C  0.72829857  0.45458532  0.67257545    -0.08900
C849        C  0.72839727  0.45177645  0.61900482     0.00800
C850        C  0.71404003  0.46484494  0.59013092     0.00600
C851        C  0.70078553  0.48537708  0.61742797    -0.12400
C852        C  0.70073399  0.48822277  0.67098444     0.01100
C853        C  0.74389229  0.43738594  0.59508448     0.40400
C854        C  0.68675840  0.50976792  0.69611677     0.37000
C855        C  0.73752663  0.53093943  0.75443261     0.36800
C856        C  0.69488466  0.41328834  0.86536968     0.37500
N857        N  0.75638155  0.42565053  0.57642592    -0.43300
N858        N  0.67559390  0.52710603  0.71634315    -0.43700
N859        N  0.68721942  0.38627436  0.88663833    -0.41100
N860        N  0.74665957  0.55395322  0.73210248    -0.42500
H861        H  0.73594130  0.52204162  0.85389194     0.13600
H862        H  0.69625128  0.42345000  0.76580859     0.10100
H863        H  0.73923102  0.44356505  0.69383142     0.11200
H864        H  0.69080266  0.50197996  0.59738303     0.17000
C865        C  0.73011611  0.48802530  0.28512675    -0.01200
C866        C  0.71818746  0.46410815  0.25672015     0.07400
C867        C  0.70701591  0.43615502  0.28353789    -0.07200
C868        C  0.70674414  0.43421496  0.33722168     0.04800
C869        C  0.71751042  0.46179216  0.36615569    -0.14400
C870        C  0.73000007  0.48555403  0.33870067    -0.07700
C871        C  0.71709234  0.46762790  0.19943695     0.05800
C872        C  0.73131006  0.45912683  0.16867580    -0.08900
C873        C  0.73063086  0.46248034  0.11509195     0.00800
C874        C  0.71512277  0.47209427  0.08996420     0.00600
C875        C  0.70134943  0.48365555  0.12155794    -0.12400
C876        C  0.70207417  0.48081615  0.17508127     0.01100
C877        C  0.74636768  0.45773286  0.08736014     0.40400
C878        C  0.68737639  0.49357849  0.20441203     0.37000
C879        C  0.74230764  0.51670462  0.26053849     0.36800
C880        C  0.69555548  0.40252663  0.36118924     0.37500
N881        N  0.75903385  0.45390533  0.06543099    -0.43300
N882        N  0.67561685  0.50367640  0.22806150    -0.43700
N883        N  0.68660744  0.37696214  0.38017481    -0.41100
N884        N  0.75209861  0.53983603  0.24114034    -0.42500
H885        H  0.74009979  0.50176056  0.35854507     0.13600
H886        H  0.69837235  0.41569276  0.26227913     0.10100
H887        H  0.74313092  0.45018434  0.18666071     0.11200
H888        H  0.69012499  0.49778027  0.10527744     0.17000
C889        C  0.58667692  0.47108768  0.96415878    -0.01200
C890        C  0.59770709  0.50735134  0.96842695     0.07400
C891        C  0.59081766  0.54960791  0.97237144    -0.07200
C892        C  0.57329004  0.55604880  0.97405626     0.04800
C893        C  0.56220515  0.51971361  0.97041963    -0.14400
C894        C  0.56914476  0.47756697  0.96469912    -0.07700
C895        C  0.61642171  0.50192173  0.96956960     0.05800
C896        C  0.62468291  0.48194519  0.92837216    -0.08900
C897        C  0.64224110  0.47583397  0.92816146     0.00800
C898        C  0.65200481  0.49022264  0.96999584     0.00600
C899        C  0.64364489  0.51063234  0.01092350    -0.12400
C900        C  0.62610639  0.51659853  0.01103206     0.01100
C901        C  0.64956701  0.45395740  0.88475171     0.40400
C902        C  0.61833594  0.53745402  0.05451585     0.37000
C903        C  0.59298939  0.42672118  0.96133458     0.36800
C904        C  0.56713574  0.60039063  0.97889971     0.37500
N905        N  0.65512246  0.43687252  0.84913322    -0.43300
N906        N  0.61210041  0.55444997  0.08916349    -0.43700
N907        N  0.56227114  0.63598232  0.98301767    -0.41100
N908        N  0.59802599  0.39115479  0.95908007    -0.42500
H909        H  0.56084573  0.44930578  0.96226789     0.13600
H910        H  0.59920609  0.57770809  0.97465426     0.10100
H911        H  0.61733796  0.47104947  0.89610827     0.11200
H912        H  0.65088833  0.52252849  0.04285110     0.17000
loop_ 
_geom_bond_atom_site_label_1 
_geom_bond_atom_site_label_2 
_geom_bond_distance 
_geom_bond_site_symmetry_2 
_ccdc_geom_bond_type 
C1            C3   1.544       .  S
C1            C5   1.535       .  S
C1            C4   1.534       .  S
C1          C845   1.556       .  S
C2            C6   1.538       .  S
C2            C8   1.535       .  S
C2            C7   1.564       .  S
C2          C874   1.561       .  S
C3           C11   1.381       .  A
C3            C6   1.405   1_556  A
C4           C15   1.372       .  A
C4            C7   1.402   1_556  A
C5           C19   1.374       .  A
C5            C8   1.392   1_556  A
C6            C9   1.375       .  A
C7           C13   1.389       .  A
C8           C16   1.375       .  A
C9           N10   1.353   1_554  A
C9           H22   1.083       .  S
N10          C11   1.353       .  A
N10         C821   1.432       .  S
C11          H12   1.080       .  S
C13          N14   1.363   1_554  A
C13          H23   1.080       .  S
N14          C15   1.355       .  A
N14         C898   1.448       .  S
C15          H21   1.081       .  S
C16          N17   1.358   1_554  A
C16          H18   1.083       .  S
N17          C19   1.358       .  A
N17         C802   1.440       .  S
C19          H20   1.081       .  S
C24          C26   1.549       .  S
C24          C28   1.537       .  S
C24          C27   1.540       .  S
C24         C869   1.556       .  S
C25          C29   1.543       .  S
C25          C31   1.542       .  S
C25          C30   1.557       .  S
C25         C850   1.558       .  S
C26          C34   1.387       .  A
C26          C29   1.407       .  A
C27          C38   1.378       .  A
C27          C30   1.402       .  A
C28          C42   1.376       .  A
C28          C31   1.394       .  A
C29          C32   1.383       .  A
C30          C36   1.384       .  A
C31          C39   1.383       .  A
C32          N33   1.354       .  A
C32          H45   1.083       .  S
N33          C34   1.355       .  A
N33         C749   1.444       .  S
C34          H35   1.080       .  S
C36          N37   1.359       .  A
C36          H46   1.080       .  S
N37          C38   1.355       .  A
N37         C773   1.442       .  S
C38          H44   1.082       .  S
C39          N40   1.359       .  A
C39          H41   1.082       .  S
N40          C42   1.358       .  A
N40         C725   1.442       .  S
C42          H43   1.082       .  S
C47          C49   1.540   1_565  S
C47          C51   1.526       .  S
C47          C50   1.547       .  S
C47         C682   1.556       .  S
C48          C52   1.551   1_565  S
C48          C54   1.534       .  S
C48          C53   1.543       .  S
C48         C658   1.558       .  S
C49          C57   1.377       .  A
C49          C52   1.410   1_554  A
C50          C61   1.377       .  A
C50          C53   1.400   1_554  A
C51          C65   1.371       .  A
C51          C54   1.392   1_554  A
C52          C55   1.383       .  A
C53          C59   1.378       .  A
C54          C62   1.376       .  A
C55          N56   1.355       .  A
C55          H68   1.081       .  S
N56          C57   1.352   1_556  A
N56         C797   1.441       .  S
C57          H58   1.082       .  S
C59          N60   1.360       .  A
C59          H69   1.079       .  S
N60          C61   1.359   1_556  A
N60         C706   1.445   1_565  S
C61          H67   1.083   1_565  S
C62          N63   1.359       .  A
C62          H64   1.085       .  S
N63          C65   1.357   1_556  A
N63         C826   1.436       .  S
C65          H66   1.080       .  S
C70          C72   1.540   1_565  S
C70          C74   1.554       .  S
C70          C73   1.542       .  S
C70         C653   1.558       .  S
C71          C75   1.538   1_565  S
C71          C77   1.550       .  S
C71          C76   1.551       .  S
C71         C677   1.556       .  S
C72          C80   1.378       .  A
C72          C75   1.395       .  A
C73          C84   1.379       .  A
C73          C76   1.396       .  A
C74          C88   1.386       .  A
C74          C77   1.406       .  A
C75          C78   1.379       .  A
C76          C82   1.388       .  A
C77          C85   1.382       .  A
C78          N79   1.359       .  A
C78          H91   1.083       .  S
N79          C80   1.358       .  A
N79         C730   1.440       .  S
C80          H81   1.082       .  S
C82          N83   1.366       .  A
C82          H92   1.082       .  S
N83          C84   1.362       .  A
N83         C629   1.457       .  S
C84          H90   1.082       .  S
C85          N86   1.354       .  A
C85          H87   1.081       .  S
N86          C88   1.353       .  A
N86         C754   1.436       .  S
C88          H89   1.081       .  S
O93        Ni101   1.932       .  S
O93         C103   1.285   1_554  A
O94        Ni101   1.920       .  S
O94         C104   1.282   1_554  A
O95        Ni101   1.915   1_556  S
O95         C105   1.278       .  A
O96        Ni101   1.912       .  S
O96         C106   1.281       .  A
O97        Ni102   1.912   1_554  S
O97         C106   1.279       .  A
O98        Ni102   1.910       .  S
O98         C105   1.281       .  A
O99        Ni102   1.919       .  S
O99         C104   1.282       .  A
O100       Ni102   1.918       .  S
O100        C103   1.281       .  A
Ni101      Ni102   2.388   1_554  S
C103        C562   1.498       .  S
C104        C893   1.487       .  S
C105        C581   1.464       .  S
C106        C610   1.473       .  S
O107       Ni115   1.912       .  S
O107        C117   1.280       .  A
O108       Ni115   1.918       .  S
O108        C118   1.282       .  A
O109       Ni115   1.909       .  S
O109        C119   1.281       .  A
O110       Ni115   1.915       .  S
O110        C120   1.279       .  A
O111       Ni116   1.910       .  S
O111        C120   1.281       .  A
O112       Ni116   1.911       .  S
O112        C119   1.277       .  A
O113       Ni116   1.914       .  S
O113        C118   1.281       .  A
O114       Ni116   1.918       .  S
O114        C117   1.282       .  A
Ni115      Ni116   2.389       .  S
C117        C533   1.477       .  S
C118        C778   1.492       .  S
C119        C605   1.464       .  S
C120        C586   1.476       .  S
O121       Ni129   1.918       .  S
O121        C131   1.281   1_556  A
O122       Ni129   1.917   1_655  S
O122        C132   1.281       .  A
O123       Ni129   1.919   1_554  S
O123        C133   1.279       .  A
O124       Ni129   1.920       .  S
O124        C134   1.284   1_545  A
O125       Ni130   1.902   1_556  S
O125        C134   1.277       .  A
O126       Ni130   1.895   1_545  S
O126        C133   1.278       .  A
O127       Ni130   1.923   1_655  S
O127        C132   1.283   1_564  A
O128       Ni130   1.931       .  S
O128        C131   1.285   1_565  A
Ni129      Ni130   2.388   1_546  S
C131        C461   1.501       .  S
C132        C701   1.482       .  S
C133        C514   1.461   1_455  S
C134        C490   1.476       .  S
O135       Ni143   1.927   1_655  S
O135        C145   1.284       .  A
O136       Ni143   1.932   1_545  S
O136        C146   1.284   1_545  A
O137       Ni143   1.901   1_545  S
O137        C147   1.277       .  A
O138       Ni143   1.903       .  S
O138        C148   1.279       .  A
O139       Ni144   1.918       .  S
O139        C148   1.279       .  A
O140       Ni144   1.915       .  S
O140        C147   1.283   1_565  A
O141       Ni144   1.927       .  S
O141        C146   1.283       .  A
O142       Ni144   1.931   1_655  S
O142        C145   1.284       .  A
Ni143      Ni144   2.387       .  S
C145        C634   1.504       .  S
C146        C437   1.492       .  S
C147        C509   1.474       .  S
C148        C485   1.462       .  S
C149        C151   1.556   1_556  S
C149        C153   1.547   1_556  S
C149        C152   1.544       .  S
C149        C389   1.559       .  S
C150        C154   1.534       .  S
C150        C156   1.551       .  S
C150        C155   1.544       .  S
C150        C418   1.558       .  S
C151        C159   1.389   1_554  A
C151        C154   1.400       .  A
C152        C163   1.380       .  A
C152        C155   1.396   1_556  A
C153        C167   1.383   1_554  A
C153        C156   1.402       .  A
C154        C157   1.376       .  A
C155        C161   1.382       .  A
C156        C164   1.382       .  A
C157        N158   1.353       .  A
C157        H170   1.083       .  S
N158        C159   1.358   1_554  A
N158        C346   1.440       .  S
C159        H160   1.076       .  S
C161        N162   1.362       .  A
C161        H171   1.082       .  S
N162        C163   1.361   1_554  A
N162        C557   1.449       .  S
C163        H169   1.082       .  S
C164        N165   1.356       .  A
C164        H166   1.080       .  S
N165        C167   1.358   1_554  A
N165        C370   1.443       .  S
C167        H168   1.082       .  S
C172        C174   1.546       .  S
C172        C176   1.538       .  S
C172        C175   1.555       .  S
C172        C413   1.558       .  S
C173        C177   1.547       .  S
C173        C179   1.529       .  S
C173        C178   1.548       .  S
C173        C394   1.552       .  S
C174        C182   1.380       .  A
C174        C177   1.397       .  A
C175        C186   1.383       .  A
C175        C178   1.407       .  A
C176        C190   1.382       .  A
C176        C179   1.392       .  A
C177        C180   1.380       .  A
C178        C184   1.385       .  A
C179        C187   1.374       .  A
C180        N181   1.362       .  A
C180        H193   1.081       .  S
N181        C182   1.363       .  A
N181        C293   1.453       .  S
C182        H183   1.081       .  S
C184        N185   1.353       .  A
C184        H194   1.077       .  S
N185        C186   1.354       .  A
N185        C538   1.443       .  S
C186        H192   1.081       .  S
C187        N188   1.356       .  A
C187        H189   1.083       .  S
N188        C190   1.360       .  A
N188        C322   1.438       .  S
C190        H191   1.082       .  S
C195        C197   1.538   1_545  S
C195        C199   1.538       .  S
C195        C198   1.554       .  S
C195        C269   1.554       .  S
C196        C200   1.537   1_546  S
C196        C202   1.543   1_556  S
C196        C201   1.557   1_556  S
C196        C250   1.556       .  S
C197        C205   1.378       .  A
C197        C200   1.395       .  A
C198        C209   1.385       .  A
C198        C201   1.407       .  A
C199        C213   1.378       .  A
C199        C202   1.397       .  A
C200        C203   1.378   1_554  A
C201        C207   1.385   1_554  A
C202        C210   1.381   1_554  A
C203        N204   1.357   1_556  A
C203        H216   1.084       .  S
N204        C205   1.354       .  A
N204        C365   1.433       .  S
C205        H206   1.081       .  S
C207        N208   1.357   1_556  A
C207        H217   1.080       .  S
N208        C209   1.356       .  A
N208        C466   1.444       .  S
C209        H215   1.081       .  S
C210        N211   1.360   1_556  A
C210        H212   1.082       .  S
N211        C213   1.357       .  A
N211        C341   1.441       .  S
C213        H214   1.083       .  S
C218        C220   1.550   1_545  S
C218        C222   1.540       .  S
C218        C221   1.551       .  S
C218        C245   1.557       .  S
C219        C223   1.539   1_545  S
C219        C225   1.550       .  S
C219        C224   1.547       .  S
C219        C274   1.557       .  S
C220        C228   1.386       .  A
C220        C223   1.398       .  A
C221        C232   1.386       .  A
C221        C224   1.398       .  A
C222        C236   1.378       .  A
C222        C225   1.399       .  A
C223        C226   1.379       .  A
C224        C230   1.378       .  A
C225        C233   1.386       .  A
C226        N227   1.356       .  A
C226        H239   1.084       .  S
N227        C228   1.358       .  A
N227        C317   1.443       .  S
C228        H229   1.079       .  S
C230        N231   1.360       .  A
C230        H240   1.083       .  S
N231        C232   1.364       .  A
N231        C442   1.453       .  S
C232        H238   1.081       .  S
C233        N234   1.358       .  A
C233        H235   1.079       .  S
N234        C236   1.357       .  A
N234        C298   1.444       .  S
C236        H237   1.083       .  S
C241        C242   1.409   1_565  A
C241        C246   1.408       .  A
C241        C255   1.444       .  S
C242        C243   1.405       .  A
C242        C247   1.505       .  S
C243        C244   1.410       .  A
C243        H262   1.084       .  S
C244        C245   1.424       .  A
C244        C256   1.443       .  S
C245        C246   1.415   1_545  A
C246        H261   1.073       .  S
C247        C248   1.405       .  A
C247        C252   1.408       .  A
C248        C249   1.412       .  A
C248        H263   1.085       .  S
C249        C250   1.425       .  A
C249        C253   1.444       .  S
C250        C251   1.412       .  A
C251        C252   1.406       .  A
C251        H264   1.080   1_545  S
C252        C254   1.444   1_545  S
C253        N257   1.158       .  T
C254        N258   1.157       .  T
C255        N260   1.157       .  T
C256        N259   1.157       .  T
C265        C266   1.409       .  A
C265        C270   1.407       .  A
C265        C279   1.444       .  S
C266        C267   1.402       .  A
C266        C271   1.501       .  S
C267        C268   1.407       .  A
C267        H286   1.085       .  S
C268        C269   1.426       .  A
C268        C280   1.444       .  S
C269        C270   1.412       .  A
C270        H285   1.078       .  S
C271        C272   1.402   1_545  A
C271        C276   1.409       .  A
C272        C273   1.408       .  A
C272        H287   1.085       .  S
C273        C274   1.426   1_565  A
C273        C277   1.444       .  S
C274        C275   1.413       .  A
C275        C276   1.406       .  A
C275        H288   1.073       .  S
C276        C278   1.444       .  S
C277        N281   1.157       .  T
C278        N282   1.157       .  T
C279        N284   1.157       .  T
C280        N283   1.158       .  T
C289        C290   1.408       .  A
C289        C294   1.403       .  A
C289        C303   1.444       .  S
C290        C291   1.397       .  A
C290        C295   1.484       .  S
C291        C292   1.401       .  A
C291        H310   1.086       .  S
C292        C293   1.421       .  A
C292        C304   1.441       .  S
C293        C294   1.410       .  A
C294        H309   1.084       .  S
C295        C296   1.401       .  A
C295        C300   1.409       .  A
C296        C297   1.403       .  A
C296        H311   1.085       .  S
C297        C298   1.415       .  A
C297        C301   1.443       .  S
C298        C299   1.406       .  A
C299        C300   1.401       .  A
C299        H312   1.084       .  S
C300        C302   1.444       .  S
C301        N305   1.157       .  T
C302        N306   1.157       .  T
C303        N308   1.157       .  T
C304        N307   1.157       .  T
C313        C314   1.412       .  A
C313        C318   1.403       .  A
C313        C327   1.444       .  S
C314        C315   1.403       .  A
C314        C319   1.489       .  S
C315        C316   1.402       .  A
C315        H334   1.085       .  S
C316        C317   1.413       .  A
C316        C328   1.442       .  S
C317        C318   1.405       .  A
C318        H333   1.085       .  S
C319        C320   1.406       .  A
C319        C324   1.412       .  A
C320        C321   1.404       .  A
C320        H335   1.084       .  S
C321        C322   1.409       .  A
C321        C325   1.442       .  S
C322        C323   1.403       .  A
C323        C324   1.400       .  A
C323        H336   1.084       .  S
C324        C326   1.444       .  S
C325        N329   1.157       .  T
C326        N330   1.157       .  T
C327        N332   1.157       .  T
C328        N331   1.157       .  T
C337        C338   1.410       .  A
C337        C342   1.403       .  A
C337        C351   1.444       .  S
C338        C339   1.402       .  A
C338        C343   1.485       .  S
C339        C340   1.402       .  A
C339        H358   1.084   1_554  S
C340        C341   1.411       .  A
C340        C352   1.442   1_554  S
C341        C342   1.405       .  A
C342        H357   1.084       .  S
C343        C344   1.402       .  A
C343        C348   1.410       .  A
C344        C345   1.401       .  A
C344        H359   1.085   1_554  S
C345        C346   1.412       .  A
C345        C349   1.443   1_554  S
C346        C347   1.404       .  A
C347        C348   1.403       .  A
C347        H360   1.084       .  S
C348        C350   1.443       .  S
C349        N353   1.157       .  T
C350        N354   1.157       .  T
C351        N356   1.157       .  T
C352        N355   1.157       .  T
C361        C362   1.416       .  A
C361        C366   1.402       .  A
C361        C375   1.444       .  S
C362        C363   1.407       .  A
C362        C367   1.494       .  S
C363        C364   1.400       .  A
C363        H382   1.085       .  S
C364        C365   1.406       .  A
C364        C376   1.443       .  S
C365        C366   1.399       .  A
C366        H381   1.085       .  S
C367        C368   1.406       .  A
C367        C372   1.414       .  A
C368        C369   1.402       .  A
C368        H383   1.085   1_554  S
C369        C370   1.411       .  A
C369        C373   1.442   1_554  S
C370        C371   1.404       .  A
C371        C372   1.400       .  A
C371        H384   1.085       .  S
C372        C374   1.444       .  S
C373        N377   1.157       .  T
C374        N378   1.157       .  T
C375        N380   1.157       .  T
C376        N379   1.157       .  T
C385        C386   1.410       .  A
C385        C390   1.407       .  A
C385        C399   1.445       .  S
C386        C387   1.405       .  A
C386        C391   1.506       .  S
C387        C388   1.409       .  A
C387        H406   1.082       .  S
C388        C389   1.425       .  A
C388        C400   1.444       .  S
C389        C390   1.412       .  A
C390        H405   1.062       .  S
C391        C392   1.407       .  A
C391        C396   1.412       .  A
C392        C393   1.409       .  A
C392        H407   1.084       .  S
C393        C394   1.421       .  A
C393        C397   1.444       .  S
C394        C395   1.410       .  A
C395        C396   1.405       .  A
C395        H408   1.076       .  S
C396        C398   1.444       .  S
C397        N401   1.157       .  T
C398        N402   1.157       .  T
C399        N404   1.157       .  T
C400        N403   1.157       .  T
C409        C410   1.410       .  A
C409        C414   1.406       .  A
C409        C423   1.445       .  S
C410        C411   1.408       .  A
C410        C415   1.510       .  S
C411        C412   1.411       .  A
C411        H430   1.084       .  S
C412        C413   1.422       .  A
C412        C424   1.444       .  S
C413        C414   1.413       .  A
C414        H429   1.076       .  S
C415        C416   1.408       .  A
C415        C420   1.411       .  A
C416        C417   1.412       .  A
C416        H431   1.084       .  S
C417        C418   1.423       .  A
C417        C421   1.444       .  S
C418        C419   1.413       .  A
C419        C420   1.405       .  A
C419        H432   1.075       .  S
C420        C422   1.444       .  S
C421        N425   1.157       .  T
C422        N426   1.157       .  T
C423        N428   1.157       .  T
C424        N427   1.157       .  T
C433        C434   1.413   1_545  A
C433        C438   1.408       .  A
C433        C447   1.444       .  S
C434        C435   1.404       .  A
C434        C439   1.497   1_565  S
C435        C436   1.405       .  A
C435        H454   1.085       .  S
C436        C437   1.415       .  A
C436        C448   1.443       .  S
C437        C438   1.407   1_565  A
C438        H453   1.085       .  S
C439        C440   1.405       .  A
C439        C444   1.411   1_545  A
C440        C441   1.407       .  A
C440        H455   1.084       .  S
C441        C442   1.416       .  A
C441        C445   1.441       .  S
C442        C443   1.409   1_545  A
C443        C444   1.404       .  A
C443        H456   1.083       .  S
C444        C446   1.444       .  S
C445        N449   1.157       .  T
C446        N450   1.157       .  T
C447        N452   1.157       .  T
C448        N451   1.157       .  T
C457        C458   1.409   1_565  A
C457        C462   1.404       .  A
C457        C471   1.443       .  S
C458        C459   1.401       .  A
C458        C463   1.491       .  S
C459        C460   1.405       .  A
C459        H478   1.085   1_554  S
C460        C461   1.423       .  A
C460        C472   1.444   1_554  S
C461        C462   1.410   1_545  A
C462        H477   1.084       .  S
C463        C464   1.404   1_554  A
C463        C468   1.411       .  A
C464        C465   1.403       .  A
C464        H479   1.084   1_545  S
C465        C466   1.413   1_556  A
C465        C469   1.443   1_545  S
C466        C467   1.405       .  A
C467        C468   1.404       .  A
C467        H480   1.084       .  S
C468        C470   1.443       .  S
C469        N473   1.157       .  T
C470        N474   1.157       .  T
C471        N476   1.157       .  T
C472        N475   1.157       .  T
C481        C482   1.410       .  A
C481        C486   1.399       .  A
C481        C495   1.443       .  S
C482        C483   1.403   1_455  A
C482        C487   1.479       .  S
C483        C484   1.397       .  A
C483        H502   1.085       .  S
C484        C485   1.408   1_655  A
C484        C496   1.445       .  S
C485        C486   1.400       .  A
C486        H501   1.085       .  S
C487        C488   1.404       .  A
C487        C492   1.407       .  A
C488        C489   1.394       .  A
C488        H503   1.085       .  S
C489        C490   1.410       .  A
C489        C493   1.445   1_565  S
C490        C491   1.409       .  A
C491        C492   1.401       .  A
C491        H504   1.084       .  S
C492        C494   1.443       .  S
C493        N497   1.157       .  T
C494        N498   1.157   1_455  T
C495        N500   1.157       .  T
C496        N499   1.157       .  T
C505        C506   1.412       .  A
C505        C510   1.393       .  A
C505        C519   1.447       .  S
C506        C507   1.398   1_455  A
C506        C511   1.472       .  S
C507        C508   1.399       .  A
C507        H526   1.085       .  S
C508        C509   1.417   1_655  A
C508        C520   1.444       .  S
C509        C510   1.401       .  A
C510        H525   1.086   1_545  S
C511        C512   1.399   1_455  A
C511        C516   1.408       .  A
C512        C513   1.393       .  A
C512        H527   1.085       .  S
C513        C514   1.410       .  A
C513        C517   1.446       .  S
C514        C515   1.401   1_655  A
C515        C516   1.400       .  A
C515        H528   1.085       .  S
C516        C518   1.443       .  S
C517        N521   1.157       .  T
C518        N522   1.157       .  T
C519        N524   1.157       .  T
C520        N523   1.157       .  T
C529        C530   1.411       .  A
C529        C534   1.400       .  A
C529        C543   1.444       .  S
C530        C531   1.403       .  A
C530        C535   1.485       .  S
C531        C532   1.399       .  A
C531        H550   1.085       .  S
C532        C533   1.413       .  A
C532        C544   1.444       .  S
C533        C534   1.404       .  A
C534        H549   1.085       .  S
C535        C536   1.404       .  A
C535        C540   1.409       .  A
C536        C537   1.402       .  A
C536        H551   1.085       .  S
C537        C538   1.415       .  A
C537        C541   1.442       .  S
C538        C539   1.405       .  A
C539        C540   1.397       .  A
C539        H552   1.084       .  S
C540        C542   1.444       .  S
C541        N545   1.157       .  T
C542        N546   1.157       .  T
C543        N548   1.157       .  T
C544        N547   1.157       .  T
C553        C554   1.414       .  A
C553        C558   1.404       .  A
C553        C567   1.444       .  S
C554        C555   1.405   1_554  A
C554        C559   1.498       .  S
C555        C556   1.406       .  A
C555        H574   1.084       .  S
C556        C557   1.416   1_556  A
C556        C568   1.442       .  S
C557        C558   1.405       .  A
C558        H573   1.084       .  S
C559        C560   1.403   1_554  A
C559        C564   1.413       .  A
C560        C561   1.403       .  A
C560        H575   1.085       .  S
C561        C562   1.419       .  A
C561        C565   1.444       .  S
C562        C563   1.408   1_556  A
C563        C564   1.406       .  A
C563        H576   1.085       .  S
C564        C566   1.444       .  S
C565        N569   1.157       .  T
C566        N570   1.157       .  T
C567        N572   1.157       .  T
C568        N571   1.157       .  T
C577        C578   1.412       .  A
C577        C582   1.399       .  A
C577        C591   1.444       .  S
C578        C579   1.405       .  A
C578        C583   1.483       .  S
C579        C580   1.398       .  A
C579        H598   1.085       .  S
C580        C581   1.406       .  A
C580        C592   1.444       .  S
C581        C582   1.401       .  A
C582        H597   1.085       .  S
C583        C584   1.403       .  A
C583        C588   1.410       .  A
C584        C585   1.392       .  A
C584        H599   1.085       .  S
C585        C586   1.411       .  A
C585        C589   1.445       .  S
C586        C587   1.407       .  A
C587        C588   1.404       .  A
C587        H600   1.085       .  S
C588        C590   1.443       .  S
C589        N593   1.157       .  T
C590        N594   1.157       .  T
C591        N596   1.157       .  T
C592        N595   1.157       .  T
C601        C602   1.413       .  A
C601        C606   1.393       .  A
C601        C615   1.445       .  S
C602        C603   1.404       .  A
C602        C607   1.476       .  S
C603        C604   1.401       .  A
C603        H622   1.084       .  S
C604        C605   1.409       .  A
C604        C616   1.444       .  S
C605        C606   1.398       .  A
C606        H621   1.085       .  S
C607        C608   1.402       .  A
C607        C612   1.408       .  A
C608        C609   1.393       .  A
C608        H623   1.086       .  S
C609        C610   1.412       .  A
C609        C613   1.445       .  S
C610        C611   1.405       .  A
C611        C612   1.401       .  A
C611        H624   1.085       .  S
C612        C614   1.442       .  S
C613        N617   1.157       .  T
C614        N618   1.157       .  T
C615        N620   1.157       .  T
C616        N619   1.157       .  T
C625        C626   1.410       .  A
C625        C630   1.407       .  A
C625        C639   1.443       .  S
C626        C627   1.401       .  A
C626        C631   1.497       .  S
C627        C628   1.406       .  A
C627        H646   1.085       .  S
C628        C629   1.419       .  A
C628        C640   1.440       .  S
C629        C630   1.411       .  A
C630        H645   1.084       .  S
C631        C632   1.403       .  A
C631        C636   1.410       .  A
C632        C633   1.409       .  A
C632        H647   1.084       .  S
C633        C634   1.422       .  A
C633        C637   1.444       .  S
C634        C635   1.410       .  A
C635        C636   1.404       .  A
C635        H648   1.084       .  S
C636        C638   1.444       .  S
C637        N641   1.157       .  T
C638        N642   1.157   1_565  T
C639        N644   1.157       .  T
C640        N643   1.157   1_565  T
C649        C650   1.410       .  A
C649        C654   1.407       .  A
C649        C663   1.443       .  S
C650        C651   1.405   1_565  A
C650        C655   1.506       .  S
C651        C652   1.411       .  A
C651        H670   1.085       .  S
C652        C653   1.424   1_545  A
C652        C664   1.444       .  S
C653        C654   1.412       .  A
C654        H669   1.078       .  S
C655        C656   1.404       .  A
C655        C660   1.410       .  A
C656        C657   1.411       .  A
C656        H671   1.085       .  S
C657        C658   1.424       .  A
C657        C661   1.443       .  S
C658        C659   1.415       .  A
C659        C660   1.409       .  A
C659        H672   1.079   1_565  S
C660        C662   1.444   1_565  S
C661        N665   1.157       .  T
C662        N666   1.157       .  T
C663        N668   1.157       .  T
C664        N667   1.158       .  T
C673        C674   1.414       .  A
C673        C678   1.408       .  A
C673        C687   1.444       .  S
C674        C675   1.407       .  A
C674        C679   1.512       .  S
C675        C676   1.411       .  A
C675        H694   1.084   1_565  S
C676        C677   1.420       .  A
C676        C688   1.442   1_565  S
C677        C678   1.413       .  A
C678        H693   1.079       .  S
C679        C680   1.407       .  A
C679        C684   1.413       .  A
C680        C681   1.411       .  A
C680        H695   1.084   1_565  S
C681        C682   1.424       .  A
C681        C685   1.443       .  S
C682        C683   1.411       .  A
C683        C684   1.407       .  A
C683        H696   1.082       .  S
C684        C686   1.444       .  S
C685        N689   1.158       .  T
C686        N690   1.157       .  T
C687        N692   1.157       .  T
C688        N691   1.157       .  T
C697        C698   1.412   1_565  A
C697        C702   1.402       .  A
C697        C711   1.444       .  S
C698        C699   1.402       .  A
C698        C703   1.486       .  S
C699        C700   1.401       .  A
C699        H718   1.084       .  S
C700        C701   1.415       .  A
C700        C712   1.444   1_556  S
C701        C702   1.403   1_545  A
C702        H717   1.084       .  S
C703        C704   1.401   1_546  A
C703        C708   1.410       .  A
C704        C705   1.399       .  A
C704        H719   1.085       .  S
C705        C706   1.418   1_564  A
C705        C709   1.443       .  S
C706        C707   1.406       .  A
C707        C708   1.402       .  A
C707        H720   1.084       .  S
C708        C710   1.443       .  S
C709        N713   1.157       .  T
C710        N714   1.157       .  T
C711        N716   1.157       .  T
C712        N715   1.157       .  T
C721        C722   1.410       .  A
C721        C726   1.405       .  A
C721        C735   1.443       .  S
C722        C723   1.402       .  A
C722        C727   1.486       .  S
C723        C724   1.400       .  A
C723        H742   1.085       .  S
C724        C725   1.413       .  A
C724        C736   1.443       .  S
C725        C726   1.406       .  A
C726        H741   1.084       .  S
C727        C728   1.404       .  A
C727        C732   1.410       .  A
C728        C729   1.405       .  A
C728        H743   1.085       .  S
C729        C730   1.412       .  A
C729        C733   1.443       .  S
C730        C731   1.402       .  A
C731        C732   1.399       .  A
C731        H744   1.085       .  S
C732        C734   1.444       .  S
C733        N737   1.157       .  T
C734        N738   1.157       .  T
C735        N740   1.157       .  T
C736        N739   1.157       .  T
C745        C746   1.414       .  A
C745        C750   1.403       .  A
C745        C759   1.444       .  S
C746        C747   1.406       .  A
C746        C751   1.496       .  S
C747        C748   1.404       .  A
C747        H766   1.084       .  S
C748        C749   1.413       .  A
C748        C760   1.443       .  S
C749        C750   1.403       .  A
C750        H765   1.084       .  S
C751        C752   1.407       .  A
C751        C756   1.416       .  A
C752        C753   1.400       .  A
C752        H767   1.084       .  S
C753        C754   1.405       .  A
C753        C757   1.443       .  S
C754        C755   1.402       .  A
C755        C756   1.405       .  A
C755        H768   1.083       .  S
C756        C758   1.444       .  S
C757        N761   1.157       .  T
C758        N762   1.157       .  T
C759        N764   1.157       .  T
C760        N763   1.157       .  T
C769        C770   1.408       .  A
C769        C774   1.403       .  A
C769        C783   1.444       .  S
C770        C771   1.400       .  A
C770        C775   1.480       .  S
C771        C772   1.399       .  A
C771        H790   1.085       .  S
C772        C773   1.413       .  A
C772        C784   1.443       .  S
C773        C774   1.407       .  A
C774        H789   1.084       .  S
C775        C776   1.398       .  A
C775        C780   1.407       .  A
C776        C777   1.399       .  A
C776        H791   1.085       .  S
C777        C778   1.420       .  A
C777        C781   1.444       .  S
C778        C779   1.410       .  A
C779        C780   1.401       .  A
C779        H792   1.084       .  S
C780        C782   1.444       .  S
C781        N785   1.157       .  T
C782        N786   1.157       .  T
C783        N788   1.157       .  T
C784        N787   1.157       .  T
C793        C794   1.407   1_554  A
C793        C798   1.399       .  A
C793        C807   1.444       .  S
C794        C795   1.398       .  A
C794        C799   1.475       .  S
C795        C796   1.397       .  A
C795        H814   1.085       .  S
C796        C797   1.416       .  A
C796        C808   1.443       .  S
C797        C798   1.407   1_556  A
C798        H813   1.084       .  S
C799        C800   1.399       .  A
C799        C804   1.407   1_556  A
C800        C801   1.398       .  A
C800        H815   1.085       .  S
C801        C802   1.416       .  A
C801        C805   1.443       .  S
C802        C803   1.405   1_556  A
C803        C804   1.397       .  A
C803        H816   1.083       .  S
C804        C806   1.444       .  S
C805        N809   1.157       .  T
C806        N810   1.157       .  T
C807        N812   1.157       .  T
C808        N811   1.157       .  T
C817        C818   1.410       .  A
C817        C822   1.399       .  A
C817        C831   1.444       .  S
C818        C819   1.402   1_556  A
C818        C823   1.479       .  S
C819        C820   1.398       .  A
C819        H838   1.084       .  S
C820        C821   1.408   1_554  A
C820        C832   1.443       .  S
C821        C822   1.402       .  A
C822        H837   1.084       .  S
C823        C824   1.401   1_556  A
C823        C828   1.410       .  A
C824        C825   1.398       .  A
C824        H839   1.084       .  S
C825        C826   1.412   1_554  A
C825        C829   1.443       .  S
C826        C827   1.403       .  A
C827        C828   1.399       .  A
C827        H840   1.083       .  S
C828        C830   1.444       .  S
C829        N833   1.157       .  T
C830        N834   1.157       .  T
C831        N836   1.157       .  T
C832        N835   1.157       .  T
C841        C842   1.410       .  A
C841        C846   1.408       .  A
C841        C855   1.444       .  S
C842        C843   1.401       .  A
C842        C847   1.501       .  S
C843        C844   1.407       .  A
C843        H862   1.085       .  S
C844        C845   1.426       .  A
C844        C856   1.444       .  S
C845        C846   1.412       .  A
C846        H861   1.077       .  S
C847        C848   1.401       .  A
C847        C852   1.408       .  A
C848        C849   1.408       .  A
C848        H863   1.085       .  S
C849        C850   1.426       .  A
C849        C853   1.443       .  S
C850        C851   1.415       .  A
C851        C852   1.408       .  A
C851        H864   1.077       .  S
C852        C854   1.444       .  S
C853        N857   1.157       .  T
C854        N858   1.157       .  T
C855        N860   1.157       .  T
C856        N859   1.157       .  T
C865        C866   1.412       .  A
C865        C870   1.407       .  A
C865        C879   1.444       .  S
C866        C867   1.406       .  A
C866        C871   1.509       .  S
C867        C868   1.409       .  A
C867        H886   1.085       .  S
C868        C869   1.424       .  A
C868        C880   1.444       .  S
C869        C870   1.412       .  A
C870        H885   1.078       .  S
C871        C872   1.404       .  A
C871        C876   1.411       .  A
C872        C873   1.410       .  A
C872        H887   1.085       .  S
C873        C874   1.427       .  A
C873        C877   1.444       .  S
C874        C875   1.410       .  A
C875        C876   1.407       .  A
C875        H888   1.078       .  S
C876        C878   1.444       .  S
C877        N881   1.157       .  T
C878        N882   1.157       .  T
C879        N884   1.157       .  T
C880        N883   1.157       .  T
C889        C890   1.412       .  A
C889        C894   1.401       .  A
C889        C903   1.445       .  S
C890        C891   1.404       .  A
C890        C895   1.490       .  S
C891        C892   1.401       .  A
C891        H910   1.084       .  S
C892        C893   1.415       .  A
C892        C904   1.444       .  S
C893        C894   1.407       .  A
C894        H909   1.084       .  S
C895        C896   1.402       .  A
C895        C900   1.411   1_556  A
C896        C897   1.402       .  A
C896        H911   1.085       .  S
C897        C898   1.419       .  A
C897        C901   1.442       .  S
C898        C899   1.406   1_556  A
C899        C900   1.400       .  A
C899        H912   1.083       .  S
C900        C902   1.444       .  S
C901        N905   1.157       .  T
C902        N906   1.157       .  T
C903        N908   1.157       .  T
C904        N907   1.157       .  T
