geometry optimzed in LAMMPS
_audit_creation_date              2020-11-30 
_audit_creation_method            'lammps2cif' 
_symmetry_space_group_name_H-M    'P1' 
_symmetry_Int_Tables_number       1 
_symmetry_cell_setting            triclinic 
loop_ 
_symmetry_equiv_pos_as_xyz 
  x,y,z 
_cell_length_a                    38.90730534 
_cell_length_b                    36.75517337537505 
_cell_length_c                    37.83453329148889 
_cell_angle_alpha                 91.51010804964301 
_cell_angle_beta                  92.54110363301278 
_cell_angle_gamma                 88.74554186004578 
loop_ 
_atom_site_label 
_atom_site_type_symbol 
_atom_site_fract_x 
_atom_site_fract_y 
_atom_site_fract_z 
_atom_site_charge 
Zr1        Zr  0.78340844  0.72758817  0.69279920     2.17500
O2          O  0.76871085  0.69412675  0.63798892    -0.51900
O3          O  0.84380028  0.73748120  0.68418143    -0.75100
O4          O  0.78028712  0.77035782  0.64265826    -0.81800
O5          O  0.79136538  0.64017219  0.74504625    -0.83600
O6          O  0.75807568  0.82261493  0.66596977    -0.79200
O7          O  0.80629106  0.66474916  0.69320225    -0.90800
O8          O  0.86731125  0.76225706  0.73528743    -0.76800
O9          O  0.79855526  0.78403831  0.72135822    -0.86300
O10         O  0.80794431  0.71475516  0.75042026    -0.86000
O11         O  0.72980392  0.76082390  0.69680019    -0.72700
O12         O  0.74045967  0.69590399  0.72360349    -0.84900
Zr13       Zr  0.72335462  0.77520072  0.81395296     2.26400
Zr14       Zr  0.74549806  0.81637268  0.72681543     2.06300
Zr15       Zr  0.76461855  0.68585838  0.78181717     2.10000
Zr16       Zr  0.82239676  0.77058665  0.77850313     1.78800
O17         O  0.72746052  0.63359713  0.78396025    -0.93700
O18         O  0.84814276  0.83050228  0.77793947    -0.41500
O19         O  0.77803173  0.74270721  0.81029858    -0.78100
O20         O  0.76957291  0.80408339  0.78503948    -0.96800
O21         O  0.70078448  0.78695622  0.75562973    -0.90100
O22         O  0.71096953  0.71773283  0.78590869    -0.93000
C23         C  0.86910391  0.75028782  0.70312847     1.00800
C24         C  0.80613031  0.63879436  0.71547769     1.13700
C25         C  0.77006787  0.80400050  0.64018103     1.04500
O26         O  0.77530290  0.87255511  0.71706348    -0.95100
O27         O  0.73730215  0.86222142  0.77101989    -0.90900
O28         O  0.69792221  0.83749405  0.80362843    -0.84000
C29         C  0.70956762  0.86472006  0.78703258     1.11100
O30         O  0.67281398  0.70569476  0.66883360    -0.97100
Zr31       Zr  0.68749120  0.72973670  0.72817022     1.88900
O32         O  0.66133311  0.76487410  0.81912375    -0.73700
O33         O  0.69284134  0.84531965  0.70286742    -0.53000
O34         O  0.64226876  0.76600371  0.69844463    -0.97700
O35         O  0.66497758  0.66866621  0.73292791    -0.54900
O36         O  0.64024310  0.73970988  0.76708304    -0.74300
C37         C  0.63663709  0.75259474  0.79852681     0.98100
O38         O  0.73303755  0.81098185  0.86850575    -0.63100
O39         O  0.81083901  0.65601719  0.81663148    -0.57900
O40         O  0.72918794  0.73386901  0.86549419    -0.94600
O41         O  0.75469744  0.68239169  0.84397388    -0.93000
O42         O  0.86114142  0.72799740  0.80944288    -0.93300
O43         O  0.84567398  0.79581005  0.83446930    -0.92100
C44         C  0.74177227  0.70113243  0.86929629     1.16900
H45         H  0.82858283  0.69978044  0.74921168     0.32900
H46         H  0.77630742  0.82524028  0.79912343     0.43700
H47         H  0.69550679  0.70405808  0.79948580     0.37300
H48         H  0.72008385  0.76564664  0.67342169     0.33700
H49         H  0.86146858  0.83046160  0.75625494     0.25500
H50         H  0.69898881  0.87101011  0.69974741     0.31500
H51         H  0.63900061  0.78770917  0.71410098     0.37400
H52         H  0.88450933  0.73559891  0.80387341     0.31800
H53         H  0.80580928  0.62972378  0.81485376     0.30700
H54         H  0.74242408  0.61407399  0.79420604     0.32400
H55         H  0.64062219  0.67067246  0.72433602     0.31400
H56         H  0.82518889  0.80121842  0.84847904     0.35400
H57         H  0.75290813  0.79884745  0.88090878     0.28100
H58         H  0.78596103  0.70126087  0.62113575     0.32300
H59         H  0.64798847  0.70027813  0.66856356     0.35200
H60         H  0.83174654  0.65856583  0.80300048     0.27800
H61         H  0.74234628  0.83420667  0.86081559     0.40700
H62         H  0.79833350  0.86466816  0.70931676     0.30700
H63         H  0.82866127  0.84765197  0.77300123     0.38300
H64         H  0.66367572  0.66481401  0.75861787     0.30200
H65         H  0.68980595  0.83513585  0.67847027     0.30200
H66         H  0.74680305  0.70548945  0.62908916     0.30500
C67         C  0.62558989  0.99463617  0.74917049    -0.03000
Zr68       Zr  0.69800517  0.22559264  0.77374424     2.17500
O69         O  0.65267588  0.24387421  0.81339601    -0.51900
O70         O  0.68484248  0.16150311  0.76632864    -0.75100
O71         O  0.64182702  0.22835669  0.74009075    -0.81800
O72         O  0.76664002  0.21043131  0.84634486    -0.83600
O73         O  0.65399234  0.25565630  0.68942121    -0.79200
O74         O  0.70951447  0.20235536  0.83374000    -0.90800
O75         O  0.72467974  0.13474760  0.73110211    -0.76800
O76         O  0.70926660  0.21154708  0.71332836    -0.86300
O77         O  0.75259752  0.19475929  0.77206398    -0.86000
O78         O  0.69952627  0.28349749  0.74546085    -0.72700
O79         O  0.73926019  0.26775830  0.79980981    -0.84900
Zr80       Zr  0.80641156  0.27921262  0.70610044     2.26400
Zr81       Zr  0.71234388  0.26867832  0.68558818     2.06300
Zr82       Zr  0.79338151  0.23659554  0.79657739     2.10000
Zr83       Zr  0.76338720  0.18058457  0.71200850     1.78800
O84         O  0.81102143  0.27380839  0.84811953    -0.93700
O85         O  0.73736666  0.15580763  0.65702005    -0.41500
O86         O  0.80532022  0.22205994  0.73624166    -0.78100
O87         O  0.76580271  0.23665898  0.68106623    -0.96800
O88         O  0.75274220  0.31090343  0.70927396    -0.90100
O89         O  0.79593301  0.29281089  0.76712105    -0.93000
C90         C  0.69823003  0.13395323  0.75009230     1.00800
C91         C  0.73689307  0.19925017  0.85405870     1.13700
C92         C  0.63332830  0.24064990  0.70918006     1.04500
O93         O  0.69643981  0.23599883  0.63068829    -0.95100
O94         O  0.73430824  0.29599374  0.63528216    -0.90900
O95         O  0.79116871  0.30577092  0.64640645    -0.84000
C96         C  0.76293384  0.30867601  0.62681853     1.11100
O97         O  0.69973506  0.34511015  0.81163765    -0.97100
Zr98       Zr  0.74223370  0.32429124  0.76967089     1.88900
O99         O  0.82137015  0.34202254  0.71608458    -0.73700
O100        O  0.67695450  0.32254108  0.67204179    -0.53000
O101        O  0.70406710  0.37016910  0.74264667    -0.97700
O102        O  0.76741842  0.35131915  0.82421019    -0.54900
O103        O  0.78250269  0.36939131  0.75169429    -0.74300
C104        C  0.80909399  0.36984465  0.73278311     0.98100
O105        O  0.84986104  0.26129183  0.66418651    -0.63100
O106        O  0.82807638  0.18358438  0.81431918    -0.57900
O107        O  0.86350681  0.27113610  0.73659738    -0.94600
O108        O  0.85338924  0.24578050  0.78923588    -0.93000
O109        O  0.80163740  0.13292724  0.73575112    -0.93300
O110        O  0.80642813  0.15747514  0.67188481    -0.92100
C111        C  0.87363142  0.25792872  0.76671918     1.16900
H112        H  0.75306547  0.17284464  0.78562253     0.32900
H113        H  0.77057573  0.23155793  0.65657300     0.43700
H114        H  0.81414687  0.30733843  0.77788643     0.37300
H115        H  0.67720883  0.29541372  0.74651758     0.33700
H116        H  0.74206606  0.12925305  0.65793268     0.25500
H117        H  0.66151568  0.31495714  0.65179067     0.31500
H118        H  0.71537163  0.37687334  0.72087733     0.37400
H119        H  0.78957886  0.12301492  0.75577114     0.31800
H120        H  0.83466215  0.18829042  0.83957864     0.30700
H121        H  0.82703187  0.25789595  0.86208140     0.32400
H122        H  0.76485228  0.37794660  0.82123960     0.31400
H123        H  0.82334641  0.17716982  0.67140384     0.35400
H124        H  0.86105358  0.23909979  0.67405336     0.28100
H125        H  0.63471324  0.22533899  0.80948151     0.32300
H126        H  0.70017456  0.37203998  0.81179842     0.35200
H127        H  0.81178653  0.16327917  0.81442433     0.27800
H128        H  0.83666029  0.25223147  0.64289286     0.40700
H129        H  0.71537309  0.21811605  0.62693544     0.30700
H130        H  0.71225080  0.15837966  0.65987695     0.38300
H131        H  0.79248492  0.34646747  0.82331238     0.30200
H132        H  0.66156588  0.32624642  0.69202336     0.30200
H133        H  0.64234978  0.26637980  0.80328125     0.30500
C134        C  0.88826978  0.50319079  0.71917590    -0.03000
C135        C  0.76009582  0.88861244  0.50778326    -0.03000
Zr136      Zr  0.68831316  0.73734137  0.21529410     2.17500
O137        O  0.64184768  0.75258516  0.17254093    -0.51900
O138        O  0.67462371  0.67592785  0.23016389    -0.75100
O139        O  0.69734852  0.70506471  0.15809538    -0.81800
O140        O  0.64712586  0.77384797  0.29772981    -0.83600
O141        O  0.75317467  0.71527261  0.14664549    -0.79200
O142        O  0.63354065  0.74152586  0.24726370    -0.90800
O143        O  0.71296046  0.65516588  0.27224416    -0.76800
O144        O  0.74306793  0.70663243  0.21992374    -0.86300
O145        O  0.70385285  0.73020523  0.27637379    -0.86000
O146        O  0.72851234  0.77612301  0.18823544    -0.72700
O147        O  0.69097746  0.79844062  0.23998209    -0.84900
Zr148      Zr  0.80259084  0.79712991  0.28123881     2.26400
Zr149      Zr  0.78307026  0.74538268  0.19471978     2.06300
Zr150      Zr  0.70680433  0.78999088  0.30059714     2.10000
Zr151      Zr  0.75807004  0.69941563  0.28087117     1.78800
O152        O  0.67446550  0.84668764  0.30928948    -0.93700
O153        O  0.78823158  0.64731653  0.25451151    -0.41500
O154        O  0.76146146  0.75910639  0.30714095    -0.78100
O155        O  0.79988490  0.73663395  0.25545433    -0.96800
O156        O  0.78747073  0.80481472  0.22013416    -0.90100
O157        O  0.74776241  0.82825661  0.27617333    -0.93000
C158        C  0.68542782  0.65215418  0.25248894     1.00800
C159        C  0.62595641  0.75558946  0.27778898     1.13700
C160        C  0.72388718  0.70151839  0.13890494     1.04500
O161        O  0.81310685  0.68739042  0.18518225    -0.95100
O162        O  0.84313057  0.75826365  0.19607674    -0.90900
O163        O  0.85696903  0.78986478  0.24695066    -0.84000
C164        C  0.86494607  0.77427309  0.21697966     1.11100
O165        O  0.68316153  0.85691767  0.18020823    -0.97100
Zr166      Zr  0.73346372  0.83565649  0.21512623     1.88900
O167        O  0.81521471  0.85986702  0.27165658    -0.73700
O168        O  0.79995905  0.77238689  0.14007173    -0.53000
O169        O  0.75021735  0.84781884  0.15531673    -0.97700
O170        O  0.70737334  0.89214110  0.23751634    -0.54900
O171        O  0.78092609  0.87729418  0.22440490    -0.74300
C172        C  0.80614738  0.88174741  0.24703575     0.98100
O173        O  0.85160701  0.78487819  0.32199053    -0.63100
O174        O  0.69313542  0.76542373  0.35743605    -0.57900
O175        O  0.79210110  0.81934190  0.34312347    -0.94600
O176        O  0.73473773  0.81677924  0.35117150    -0.93000
O177        O  0.74419024  0.68474503  0.34091917    -0.93300
O178        O  0.80603398  0.67901991  0.31942917    -0.92100
C179        C  0.76528055  0.82391366  0.36218133     1.16900
H180        H  0.68693131  0.71700819  0.28848777     0.32900
H181        H  0.82223597  0.72468736  0.25735545     0.43700
H182        H  0.74837020  0.85150139  0.28867822     0.37300
H183        H  0.72203822  0.77856895  0.16345368     0.33700
H184        H  0.78447857  0.62699477  0.27047873     0.25500
H185        H  0.81406349  0.75328800  0.12829177     0.31500
H186        H  0.77546352  0.85081951  0.15737556     0.37400
H187        H  0.71875767  0.68593658  0.34097426     0.31800
H188        H  0.67434917  0.78138744  0.36618563     0.30700
H189        H  0.66179379  0.84313730  0.33101916     0.32400
H190        H  0.72466566  0.90278176  0.25452942     0.31400
H191        H  0.81834854  0.70157549  0.32637686     0.35400
H192        H  0.84207743  0.77089044  0.34117503     0.28100
H193        H  0.63328528  0.72890599  0.16314305     0.32300
H194        H  0.69004681  0.87985270  0.16960794     0.35200
H195        H  0.68213016  0.74184535  0.35173397     0.27800
H196        H  0.86626681  0.76684180  0.30948146     0.40700
H197        H  0.81771781  0.68653298  0.15964066     0.30700
H198        H  0.77444540  0.64104059  0.23266275     0.38300
H199        H  0.68870808  0.88431938  0.25234941     0.30200
H200        H  0.77865028  0.77439053  0.12489178     0.30200
H201        H  0.65340000  0.76321577  0.15252848     0.30500
C202        C  0.74640428  0.62057988  0.00573471    -0.03000
C203        C  0.49550862  0.73594961  0.35329162    -0.03000
C204        C  0.11628766  0.99660284  0.72582065    -0.03000
C205        C  0.74947272  0.11534992  0.98608842    -0.03000
C206        C  0.36963104  0.50658888  0.74261623    -0.03000
C207        C  0.75134521  0.39154186  0.49376803    -0.03000
C208        C  0.61695169  0.51189636  0.25211250    -0.03000
C209        C  0.24266088  0.60756517  0.48293198    -0.03000
C210        C  0.98829354  0.77654991  0.12982071    -0.03000
Zr211      Zr  0.27599250  0.69289473  0.26399602     2.17500
O212        O  0.30850178  0.63780358  0.24839839    -0.51900
O213        O  0.26605926  0.68023445  0.32607442    -0.75100
O214        O  0.33468910  0.69803761  0.28924735    -0.81800
O215        O  0.19785478  0.65155246  0.22012196    -0.83600
O216        O  0.35150401  0.75542435  0.27816786    -0.79200
O217        O  0.24087252  0.63904888  0.26104502    -0.90800
O218        O  0.22894456  0.72327462  0.34700212    -0.76800
O219        O  0.27815650  0.75108632  0.29274214    -0.86300
O220        O  0.21806405  0.71194180  0.27216980    -0.86000
O221        O  0.30345470  0.73053927  0.22273983    -0.72700
O222        O  0.24883754  0.69556663  0.20546367    -0.84900
Zr223      Zr  0.21738997  0.81232775  0.20227672     2.26400
Zr224      Zr  0.30369217  0.78893311  0.25148220     2.06300
Zr225      Zr  0.19139626  0.71576279  0.21453644     2.10000
Zr226      Zr  0.22018019  0.76949518  0.30124100     1.78800
O227        O  0.17059883  0.68944157  0.15806304    -0.93700
O228        O  0.24840398  0.80221117  0.35093653    -0.41500
O229        O  0.19121271  0.77410285  0.24377751    -0.78100
O230        O  0.24576777  0.80936718  0.26077258    -0.96800
O231        O  0.27583136  0.79345025  0.19410818    -0.90100
O232        O  0.21648308  0.75406121  0.17344391    -0.93000
C233        C  0.24700631  0.69364837  0.35045885     1.00800
C234        C  0.21398274  0.63071408  0.24197265     1.13700
C235        C  0.35686710  0.72352257  0.29021017     1.04500
O236        O  0.32201579  0.82312890  0.30475746    -0.95100
O237        O  0.30242681  0.85176190  0.23735040    -0.90900
O238        O  0.25101439  0.86774237  0.21008744    -0.84000
C239        C  0.28141862  0.87465326  0.22294862     1.11100
O240        O  0.30541202  0.67969627  0.14801243    -0.97100
Zr241      Zr  0.27469874  0.73541455  0.16543985     1.88900
O242        O  0.22755314  0.82332065  0.13926171    -0.73700
O243        O  0.35749731  0.79916361  0.22292708    -0.53000
O244        O  0.33261842  0.75120710  0.15013395    -0.97700
O245        O  0.24892283  0.70159181  0.11505788    -0.54900
O246        O  0.26561425  0.78059209  0.11954200    -0.74300
C247        C  0.24711977  0.80966645  0.11528129     0.98100
O248        O  0.18634374  0.86995322  0.21117569    -0.63100
O249        O  0.14331775  0.69338574  0.24634346    -0.57900
O250        O  0.15418953  0.80701691  0.18703843    -0.94600
O251        O  0.14030106  0.74879886  0.19715339    -0.93000
O252        O  0.16215084  0.75414307  0.31622566    -0.93300
O253        O  0.19002537  0.82381847  0.32285100    -0.92100
C254        C  0.13208202  0.78116139  0.18819317     1.16900
H255        H  0.20598449  0.69500125  0.28596800     0.32900
H256        H  0.24603714  0.83344478  0.27163918     0.43700
H257        H  0.20313130  0.75461539  0.15131139     0.37300
H258        H  0.32673460  0.72178993  0.21956356     0.33700
H259        H  0.26463087  0.78426307  0.36194874     0.25500
H260        H  0.35048534  0.80791303  0.19913443     0.31500
H261        H  0.33104379  0.77734630  0.14453104     0.37400
H262        H  0.16306941  0.75309419  0.34237047     0.31800
H263        H  0.13208339  0.71531254  0.25678841     0.30700
H264        H  0.15112158  0.67415584  0.16396683     0.32400
H265        H  0.23305220  0.71908578  0.10288610     0.31400
H266        H  0.18395986  0.83771433  0.30131008     0.35400
H267        H  0.17485105  0.87528296  0.18795598     0.28100
H268        H  0.31415439  0.62600834  0.27121728     0.32300
H269        H  0.31938943  0.68618601  0.12796104     0.35200
H270        H  0.12664324  0.68444004  0.22775213     0.27800
H271        H  0.16745144  0.86449073  0.22678728     0.40700
H272        H  0.34724952  0.82515745  0.30328633     0.30700
H273        H  0.26334221  0.81977499  0.33994925     0.38300
H274        H  0.23362263  0.68410187  0.12565508     0.30200
H275        H  0.36743267  0.82071944  0.23549548     0.30200
H276        H  0.33079862  0.64626680  0.24042746     0.30500
C277        C  0.25563049  0.89666867  0.98444876    -0.03000
C278        C  0.49753412  0.24468141  0.63567806    -0.03000
Zr279      Zr  0.29535908  0.28093298  0.74736364     2.17500
O280        O  0.34054700  0.27385673  0.79360537    -0.51900
O281        O  0.30607136  0.34370594  0.73717354    -0.75100
O282        O  0.35244130  0.27006224  0.72286193    -0.81800
O283        O  0.22462649  0.30438704  0.80980307    -0.83600
O284        O  0.34336745  0.23798387  0.67110544    -0.79200
O285        O  0.28252969  0.30549260  0.80740371    -0.90800
O286        O  0.26866915  0.36652031  0.69550776    -0.76800
O287        O  0.28513574  0.28847449  0.68502257    -0.86300
O288        O  0.24062481  0.31040942  0.73823603    -0.86000
O289        O  0.29697109  0.22086719  0.72043302    -0.72700
O290        O  0.25515957  0.24126400  0.77136002    -0.84900
Zr291      Zr  0.18914605  0.21490221  0.67324693     2.26400
Zr292      Zr  0.28350650  0.22885068  0.65855208     2.06300
Zr293      Zr  0.20038833  0.27003849  0.76026702     2.10000
Zr294      Zr  0.23040096  0.31716551  0.67636251     1.78800
O295        O  0.18594327  0.23150740  0.80874387    -0.93700
O296        O  0.25612939  0.33484575  0.62193896    -0.41500
O297        O  0.18954949  0.27621037  0.69811490    -0.78100
O298        O  0.22833940  0.25722310  0.64932854    -0.96800
O299        O  0.24484156  0.18739767  0.68205896    -0.90100
O300        O  0.20104436  0.20966010  0.73576357    -0.93000
C301        C  0.29415003  0.36974544  0.71810371     1.00800
C302        C  0.25421724  0.31265054  0.82320049     1.13700
C303        C  0.36295009  0.25273553  0.69515144     1.04500
O304        O  0.30456133  0.26127897  0.60875523    -0.95100
O305        O  0.25922898  0.20184136  0.60478363    -0.90900
O306        O  0.20346006  0.18831237  0.61352081    -0.84000
C307        C  0.23052350  0.18789301  0.59446248     1.11100
O308        O  0.30197309  0.16971649  0.78910782    -0.97100
Zr309      Zr  0.25662737  0.18190416  0.74408407     1.88900
O310        O  0.17933253  0.15165764  0.68716086    -0.73700
O311        O  0.31071079  0.17096995  0.64217557    -0.53000
O312        O  0.29617287  0.13457877  0.72295121    -0.97700
O313        O  0.23542093  0.15956938  0.79907510    -0.54900
O314        O  0.21968789  0.13262451  0.72853712    -0.74300
C315        C  0.19283420  0.12814386  0.70854166     0.98100
O316        O  0.14109304  0.22473282  0.63075252    -0.63100
O317        O  0.15780742  0.31627112  0.77678669    -0.57900
O318        O  0.13466730  0.21854401  0.70625551    -0.94600
O319        O  0.14400670  0.27266562  0.73192240    -0.93000
O320        O  0.19172951  0.36571733  0.69635658    -0.93300
O321        O  0.18704823  0.33476348  0.63118249    -0.92100
C322        C  0.12557461  0.24473365  0.72748177     1.16900
H323        H  0.23940001  0.33377691  0.75046428     0.32900
H324        H  0.22306451  0.25982167  0.62431999     0.43700
H325        H  0.18400265  0.19535611  0.74652602     0.37300
H326        H  0.31928814  0.20932697  0.72438380     0.33700
H327        H  0.24871219  0.36054057  0.61875582     0.25500
H328        H  0.32696084  0.17696987  0.62388825     0.31500
H329        H  0.28204614  0.11856934  0.70697226     0.37400
H330        H  0.16905436  0.35419730  0.69756397     0.31800
H331        H  0.15349727  0.31280642  0.80197961     0.30700
H332        H  0.19177737  0.24594214  0.83056259     0.32400
H333        H  0.24073664  0.13308940  0.79849285     0.31400
H334        H  0.16756902  0.31849107  0.63455565     0.35400
H335        H  0.12605818  0.24319265  0.64221022     0.28100
H336        H  0.35789234  0.29223167  0.78886210     0.32300
H337        H  0.30325132  0.14292694  0.79131520     0.35200
H338        H  0.16969631  0.33973692  0.77584530     0.27800
H339        H  0.15110735  0.23794501  0.61133049     0.40700
H340        H  0.31983154  0.28016855  0.61944159     0.30700
H341        H  0.28107636  0.33616566  0.62807512     0.38300
H342        H  0.21003409  0.16118673  0.79620204     0.30200
H343        H  0.32534249  0.16421986  0.66312263     0.30200
H344        H  0.35189502  0.25004376  0.78844200     0.30500
C345        C  0.01493897  0.25635111  0.83158352    -0.03000
Zr346      Zr  0.70352097  0.28906197  0.27434657     2.17500
O347        O  0.65994865  0.27571313  0.31618905    -0.51900
O348        O  0.68942752  0.35255636  0.26669756    -0.75100
O349        O  0.72177057  0.31229718  0.33496704    -0.81800
O350        O  0.64877113  0.23984407  0.20389659    -0.83600
O351        O  0.77987548  0.30501742  0.34091359    -0.79200
O352        O  0.64499739  0.28540462  0.24528409    -0.90800
O353        O  0.72145027  0.37513289  0.22373106    -0.76800
O354        O  0.75636920  0.31890259  0.26605661    -0.86300
O355        O  0.70738883  0.29932280  0.21230651    -0.86000
O356        O  0.74790061  0.24776451  0.29594491    -0.72700
O357        O  0.70185687  0.23017354  0.24513220    -0.84900
Zr358      Zr  0.80418699  0.23075003  0.19685302     2.26400
Zr359      Zr  0.80069156  0.27807211  0.28692074     2.06300
Zr360      Zr  0.70675721  0.24098491  0.18339419     2.10000
Zr361      Zr  0.76047890  0.32834084  0.20432900     1.78800
O362        O  0.67047757  0.19307397  0.15762473    -0.93700
O363        O  0.79629796  0.37895794  0.22455186    -0.41500
O364        O  0.75957482  0.27060044  0.17392139    -0.78100
O365        O  0.80630234  0.28947025  0.22559067    -0.96800
O366        O  0.79980687  0.21983528  0.25809597    -0.90100
O367        O  0.75121452  0.20048423  0.20398045    -0.93000
C368        C  0.69798437  0.37773607  0.24624975     1.00800
C369        C  0.63163002  0.26419289  0.22076468     1.13700
C370        C  0.75087929  0.31544340  0.35283398     1.04500
O371        O  0.83249044  0.33379184  0.29825367    -0.95100
O372        O  0.86025188  0.26365801  0.27609166    -0.90900
O373        O  0.86290218  0.23082864  0.22429050    -0.84000
C374        C  0.87669545  0.24520885  0.25285929     1.11100
O375        O  0.71091483  0.17050904  0.31181541    -0.97100
Zr376      Zr  0.74714612  0.18993435  0.26515137     1.88900
O377        O  0.81860955  0.16748093  0.20157352    -0.73700
O378        O  0.82778595  0.24509881  0.33608042    -0.53000
O379        O  0.78114544  0.16579707  0.31518218    -0.97700
O380        O  0.70490419  0.14497306  0.24495959    -0.54900
O381        O  0.78385369  0.14247937  0.24079159    -0.74300
C382        C  0.80807841  0.14078064  0.21887704     0.98100
O383        O  0.84561034  0.24895034  0.15450746    -0.63100
O384        O  0.68344989  0.28230930  0.13863344    -0.57900
O385        O  0.78785833  0.20627304  0.13796980    -0.94600
O386        O  0.72936906  0.21067929  0.13127770    -0.93000
O387        O  0.73069176  0.34886453  0.15019238    -0.93300
O388        O  0.80132301  0.34577897  0.16114634    -0.92100
C389        C  0.75914335  0.20115663  0.12051847     1.16900
H390        H  0.68830160  0.31413821  0.20331985     0.32900
H391        H  0.82805187  0.30066746  0.22190150     0.43700
H392        H  0.74995408  0.17779925  0.19057459     0.37300
H393        H  0.74545757  0.24379269  0.32083806     0.33700
H394        H  0.78518993  0.40070721  0.21369796     0.25500
H395        H  0.83718436  0.26415570  0.35254489     0.31500
H396        H  0.80537522  0.16998706  0.30971233     0.37400
H397        H  0.73633764  0.37491827  0.14885207     0.31800
H398        H  0.70060481  0.28138902  0.12004274     0.30700
H399        H  0.65570283  0.20502563  0.13916550     0.32400
H400        H  0.71818405  0.12547441  0.23281441     0.31400
H401        H  0.80237196  0.32476131  0.14428750     0.35400
H402        H  0.83152405  0.26018620  0.13510206     0.28100
H403        H  0.65284539  0.29972919  0.32622052     0.32300
H404        H  0.71590731  0.14413638  0.31430115     0.35200
H405        H  0.66320719  0.26984079  0.12765574     0.27800
H406        H  0.85774112  0.26970540  0.16623050     0.40700
H407        H  0.84725006  0.32883594  0.31965452     0.30700
H408        H  0.79215909  0.38198746  0.25010240     0.38300
H409        H  0.69116372  0.15690618  0.22571804     0.30200
H410        H  0.80846589  0.23486350  0.34848505     0.30200
H411        H  0.67260551  0.26340352  0.33593276     0.30500
C412        C  0.89146763  0.00814681  0.22699194    -0.03000
C413        C  0.01077041  0.23979221  0.32731369    -0.03000
Zr414      Zr  0.27839901  0.32325066  0.17987056     2.17500
O415        O  0.30475056  0.38281185  0.18525146    -0.51900
O416        O  0.27519331  0.33239958  0.11566722    -0.75100
O417        O  0.34179689  0.31866196  0.17671649    -0.81800
O418        O  0.18787585  0.35311942  0.17073176    -0.83600
O419        O  0.36147084  0.26583865  0.20106047    -0.79200
O420        O  0.23929767  0.37534343  0.18896058    -0.90800
O421        O  0.25339578  0.28150339  0.08850600    -0.76800
O422        O  0.29251445  0.26328733  0.15953475    -0.86300
O423        O  0.22695228  0.29752628  0.15409622    -0.86000
O424        O  0.29929599  0.29269547  0.23260624    -0.72700
O425        O  0.23865086  0.32239258  0.22712109    -0.84900
Zr426      Zr  0.21957040  0.20577394  0.23310569     2.26400
Zr427      Zr  0.31097647  0.23208370  0.21177574     2.06300
Zr428      Zr  0.18743893  0.29648446  0.20041117     2.10000
Zr429      Zr  0.24103184  0.23803516  0.13420064     1.78800
O430        O  0.15988190  0.34379679  0.23622033    -0.93700
O431        O  0.28510482  0.20442132  0.10218841    -0.41500
O432        O  0.19948289  0.23583337  0.17983493    -0.78100
O433        O  0.25963565  0.20570554  0.18587799    -0.96800
O434        O  0.27183111  0.23028065  0.25821112    -0.90100
O435        O  0.20730011  0.26636083  0.25291265    -0.93000
C436        C  0.26496446  0.31403757  0.08779604     1.00800
C437        C  0.20695536  0.37922956  0.18110281     1.13700
C438        C  0.36615750  0.29606888  0.18629023     1.04500
O439        O  0.34607825  0.19715353  0.17071293    -0.95100
O440        O  0.30934652  0.16969815  0.22637020    -0.90900
O441        O  0.25589518  0.15093645  0.23801242    -0.84000
C442        C  0.28832447  0.14537214  0.23443737     1.11100
O443        O  0.27552933  0.35080786  0.29961439    -0.97100
Zr444      Zr  0.25889670  0.29005709  0.27887079     1.88900
O445        O  0.22647919  0.19520140  0.29657429    -0.73700
O446        O  0.35216137  0.22314686  0.26139331    -0.53000
O447        O  0.31260477  0.28992767  0.31457554    -0.97700
O448        O  0.21609274  0.31870241  0.31649101    -0.54900
O449        O  0.25186810  0.24387051  0.32410078    -0.74300
C450        C  0.23969303  0.21152398  0.32434704     0.98100
O451        O  0.18739177  0.15168156  0.21502971    -0.63100
O452        O  0.14011795  0.29448459  0.15603643    -0.57900
O453        O  0.15839597  0.21343178  0.24842671    -0.94600
O454        O  0.13968057  0.26711754  0.22511576    -0.93000
O455        O  0.18897335  0.24006108  0.09607798    -0.93300
O456        O  0.22409361  0.17924214  0.10869625    -0.92100
C457        C  0.13527314  0.23878636  0.24321829     1.16900
H458        H  0.21705213  0.31111451  0.13455604     0.32900
H459        H  0.26426734  0.18105818  0.17771235     0.43700
H460        H  0.19050400  0.26742559  0.27090213     0.37300
H461        H  0.32003522  0.30391000  0.24217790     0.33700
H462        H  0.28102461  0.21129894  0.07719927     0.25500
H463        H  0.37283836  0.21211577  0.25071805     0.31500
H464        H  0.31813046  0.26391374  0.31862089     0.37400
H465        H  0.17928651  0.26493958  0.09964569     0.31800
H466        H  0.13481801  0.26835604  0.15277393     0.30700
H467        H  0.13799698  0.34967867  0.22303987     0.32400
H468        H  0.20254967  0.29857988  0.32525761     0.31400
H469        H  0.21720304  0.16516777  0.12908725     0.35400
H470        H  0.16684793  0.16098006  0.20146059     0.28100
H471        H  0.31894970  0.38452356  0.16429972     0.32300
H472        H  0.27546727  0.35041966  0.32577766     0.35200
H473        H  0.12005421  0.30533197  0.16797468     0.27800
H474        H  0.20131504  0.13932833  0.19682515     0.40700
H475        H  0.36427186  0.18528822  0.18579516     0.30700
H476        H  0.30711139  0.21594229  0.10957905     0.38300
H477        H  0.20001988  0.33182650  0.30002110     0.30200
H478        H  0.35918131  0.24793684  0.26911510     0.30200
H479        H  0.32147413  0.38117209  0.20568237     0.30500
C480        C  0.25613549  0.40106534  0.95745159    -0.03000
C481        C  0.36235100  0.00521060  0.23790550    -0.03000
Zr482      Zr  0.03165814  0.02571642  0.42365904     2.17500
O483        O  0.06610323  0.00757426  0.37358661    -0.51900
O484        O  0.02816997  0.09037934  0.41085785    -0.75100
O485        O  0.99730967  0.02320446  0.36905310    -0.81800
O486        O  0.11029384  0.02948108  0.48503882    -0.83600
O487        O  0.94193030  0.01431655  0.38376751    -0.79200
O488        O  0.09273390  0.04047151  0.42850555    -0.90800
O489        O  0.99962132  0.11974310  0.45464312    -0.76800
O490        O  0.97765830  0.04993013  0.44221080    -0.86300
O491        O  0.04205986  0.05255063  0.48073933    -0.86000
O492        O  0.99340345  0.97486061  0.42443467    -0.72700
O493        O  0.05412824  0.97561914  0.45782136    -0.84900
Zr494      Zr  0.97231235  0.97666100  0.53654079     2.26400
Zr495      Zr  0.93996753  0.99966853  0.44488494     2.06300
Zr496      Zr  0.06355807  0.00293011  0.51504605     2.10000
Zr497      Zr  0.98828413  0.07600229  0.49944085     1.78800
O498        O  0.10328790  0.95130009  0.52222570    -0.93700
O499        O  0.93313771  0.10821360  0.49222813    -0.41500
O500        O  0.01022039  0.02729067  0.53469464    -0.78100
O501        O  0.94932187  0.02646448  0.50241646    -0.96800
O502        O  0.96081591  0.95010109  0.47975630    -0.90100
O503        O  0.02643206  0.95243070  0.51812579    -0.93000
C504        C  0.01466878  0.11909336  0.42513709     1.00800
C505        C  0.11556837  0.04100882  0.45414648     1.13700
C506        C  0.96513241  0.01972825  0.36172569     1.04500
O507        O  0.89447023  0.04530646  0.43526739    -0.95100
O508        O  0.89030583  0.98270446  0.47683074    -0.90900
O509        O  0.91161679  0.96417559  0.53039892    -0.84000
C510        C  0.88705353  0.96890851  0.50723435     1.11100
O511        O  0.03610063  0.90267381  0.40497462    -0.97100
Zr512      Zr  0.01442162  0.92631547  0.46078361     1.88900
O513        O  0.97588194  0.91191179  0.54998037    -0.73700
O514        O  0.90923374  0.95253180  0.41067477    -0.53000
O515        O  0.97199365  0.88838747  0.42900323    -0.97700
O516        O  0.06550487  0.88753429  0.47017554    -0.54900
O517        O  0.99992471  0.88165043  0.50369695    -0.74300
C518        C  0.98669612  0.88275087  0.53416165     0.98100
O519        O  0.94120714  0.99311742  0.58949704    -0.63100
O520        O  0.10556807  0.03250037  0.55554203    -0.57900
O521        O  0.00188186  0.98615319  0.59252208    -0.94600
O522        O  0.05363718  0.00635106  0.57691718    -0.93000
O523        O  0.02630298  0.12133214  0.52705376    -0.93300
O524        O  0.97151259  0.09866629  0.55738191    -0.92100
C525        C  0.03154196  0.99919421  0.59963059     1.16900
H526        H  0.05808844  0.07221599  0.48047425     0.32900
H527        H  0.92787880  0.03529776  0.51171442     0.43700
H528        H  0.03638334  0.93502767  0.53452863     0.37300
H529        H  0.98991758  0.96438395  0.40091457     0.33700
H530        H  0.93791284  0.13355509  0.50018341     0.25500
H531        H  0.89276155  0.96583081  0.39474410     0.31500
H532        H  0.95665693  0.88011108  0.44724300     0.37400
H533        H  0.04455714  0.10699376  0.53977971     0.31800
H534        H  0.12841047  0.02216437  0.54973489     0.30700
H535        H  0.11361496  0.95450000  0.54647113     0.32400
H536        H  0.05740720  0.86239257  0.46576582     0.31400
H537        H  0.96328115  0.07694910  0.56915656     0.35400
H538        H  0.92254047  0.01022452  0.58167041     0.28100
H539        H  0.06349908  0.02788519  0.35691841     0.32300
H540        H  0.03316265  0.87598325  0.40510886     0.35200
H541        H  0.10587818  0.05819911  0.54833059     0.27800
H542        H  0.92941758  0.97082522  0.59608238     0.40700
H543        H  0.87707608  0.03295581  0.41956638     0.30700
H544        H  0.92893375  0.10967196  0.46629920     0.38300
H545        H  0.07075363  0.88896107  0.49600844     0.30200
H546        H  0.92641423  0.94158888  0.39480901     0.30200
H547        H  0.05392818  0.98700037  0.36159048     0.30500
Zr548      Zr  0.06236877  0.04245304  0.94994731     2.17500
O549        O  0.11041264  0.08220177  0.96521097    -0.51900
O550        O  0.07560451  0.02777888  0.88981505    -0.75100
O551        O  0.11630193  0.00727221  0.95586993    -0.81800
O552        O  0.99933400  0.11968527  0.92669757    -0.83600
O553        O  0.10519771  0.95499979  0.98405375    -0.79200
O554        O  0.05525524  0.10159526  0.92103820    -0.90800
O555        O  0.03245894  0.99234836  0.86686739    -0.76800
O556        O  0.04732947  0.98016310  0.94106139    -0.86300
O557        O  0.00743830  0.04149387  0.91937523    -0.86000
O558        O  0.06171437  0.01727679  0.00793349    -0.72700
O559        O  0.02429956  0.07554619  0.98797410    -0.84900
Zr560      Zr  0.95194167  0.98553414  0.00372544     2.26400
Zr561      Zr  0.04534746  0.95512975  0.99846882     2.06300
Zr562      Zr  0.96942580  0.07351822  0.95721588     2.10000
Zr563      Zr  0.99256770  0.97951447  0.91077801     1.78800
O564        O  0.95901369  0.13132275  0.98821288    -0.93700
O565        O  0.01305343  0.91991293  0.89010541    -0.41500
O566        O  0.95260074  0.01179319  0.94657127    -0.78100
O567        O  0.99068745  0.95222444  0.96706152    -0.96800
O568        O  0.00627396  0.98663667  0.03526063    -0.90100
O569        O  0.96705551  0.04773383  0.01401134    -0.93000
C570        C  0.06017083  0.00993150  0.86462661     1.00800
C571        C  0.02971698  0.12412322  0.91594880     1.13700
C572        C  0.12525532  0.97640362  0.96901577     1.04500
O573        O  0.06018156  0.89573947  0.97275963    -0.95100
O574        O  0.01388885  0.90907386  0.02798945    -0.90900
O575        O  0.95747133  0.92563534  0.03106364    -0.84000
C576        C  0.98302135  0.90341027  0.03715896     1.11100
O577        O  0.06694982  0.09146410  0.06025122    -0.97100
Zr578      Zr  0.02153987  0.04842776  0.04470801     1.88900
O579        O  0.94195043  0.99509609  0.06477833    -0.73700
O580        O  0.07789172  0.94511658  0.05408065    -0.53000
O581        O  0.06021732  0.02543704  0.09179330    -0.97700
O582        O  0.99909330  0.10633632  0.06796127    -0.54900
O583        O  0.98370351  0.03053430  0.09016321    -0.74300
C584        C  0.95648656  0.01149502  0.09127788     0.98100
O585        O  0.90353627  0.94861851  0.98273677    -0.63100
O586        O  0.93217170  0.09075465  0.90664495    -0.57900
O587        O  0.89808241  0.02107158  0.00111324    -0.94600
O588        O  0.90969185  0.07164565  0.97088253    -0.93000
O589        O  0.95878183  0.00321873  0.86043702    -0.93300
O590        O  0.94507683  0.94011736  0.89269147    -0.92100
C591        C  0.88942019  0.05186912  0.98755776     1.16900
H592        H  0.00774894  0.05320556  0.89683642     0.32900
H593        H  0.98366895  0.92725983  0.96385283     0.43700
H594        H  0.95023169  0.06049673  0.02798070     0.37300
H595        H  0.08440639  0.01849643  0.01928772     0.33700
H596        H  0.01151970  0.92103284  0.86395700     0.25500
H597        H  0.09139418  0.92238220  0.04992480     0.31500
H598        H  0.04987169  0.00249228  0.09882498     0.37400
H599        H  0.94128042  0.01957085  0.87104393     0.31800
H600        H  0.92925581  0.11752382  0.90907109     0.30700
H601        H  0.94502467  0.14599471  0.97110403     0.32400
H602        H  0.97396898  0.10335374  0.06925615     0.31400
H603        H  0.92414445  0.95378390  0.89970981     0.35400
H604        H  0.89386434  0.96109097  0.96151987     0.28100
H605        H  0.12752957  0.07667974  0.94710633     0.32300
H606        H  0.06515992  0.09698358  0.08587232     0.35200
H607        H  0.94650477  0.08694418  0.88584317     0.27800
H608        H  0.91420557  0.92597976  0.97308548     0.40700
H609        H  0.07820214  0.88559449  0.98922336     0.30700
H610        H  0.03805943  0.91951011  0.89626161     0.38300
H611        H  0.00154109  0.12365326  0.04866917     0.30200
H612        H  0.09526483  0.96443767  0.05578624     0.30200
H613        H  0.12099892  0.07259398  0.98745123     0.30500
Zr614      Zr  0.55410446  0.02394914  0.52409993     2.17500
O615        O  0.60225807  0.06443078  0.51846117    -0.51900
O616        O  0.56699535  0.00798617  0.58602213    -0.75100
O617        O  0.54189096  0.08494779  0.55189664    -0.81800
O618        O  0.59956993  0.93824616  0.48490839    -0.83600
O619        O  0.48587707  0.10091835  0.53898338    -0.79200
O620        O  0.61031475  0.99090386  0.51627299    -0.90800
O621        O  0.52372122  0.97351931  0.60421615    -0.76800
O622        O  0.49828568  0.02376787  0.54787267    -0.86300
O623        O  0.53929512  0.96189808  0.53025024    -0.86000
O624        O  0.51514234  0.05386965  0.48172430    -0.72700
O625        O  0.55293882  0.99716595  0.46502889    -0.84900
Zr626      Zr  0.44283329  0.96333641  0.45522990     2.26400
Zr627      Zr  0.45923060  0.05201195  0.50577964     2.06300
Zr628      Zr  0.53787167  0.93514100  0.47208207     2.10000
Zr629      Zr  0.48378039  0.96199874  0.55430469     1.78800
O630        O  0.57126134  0.91642215  0.42150645    -0.93700
O631        O  0.44792520  0.99080115  0.59874296    -0.41500
O632        O  0.48209934  0.93340016  0.49655729    -0.78100
O633        O  0.44296898  0.99051495  0.51367309    -0.96800
O634        O  0.45776736  0.02505148  0.44815527    -0.90100
O635        O  0.49865158  0.96383772  0.43081067    -0.93000
C636        C  0.55220959  0.99000964  0.60970909     1.00800
C637        C  0.62012185  0.96038112  0.50142741     1.13700
C638        C  0.51561844  0.10719466  0.55313010     1.04500
O639        O  0.42077014  0.06213960  0.55427798    -0.95100
O640        O  0.40190360  0.05555402  0.47904531    -0.90900
O641        O  0.38948809  0.00287777  0.44902724    -0.84000
C642        C  0.38151341  0.03578047  0.45963866     1.11100
O643        O  0.55996233  0.06526326  0.41182896    -0.97100
Zr644      Zr  0.51263477  0.02552147  0.42367506     1.88900
O645        O  0.43218358  0.96949307  0.39305765    -0.73700
O646        O  0.44522247  0.11020998  0.47849764    -0.53000
O647        O  0.49342918  0.08536204  0.40357655    -0.97700
O648        O  0.54661173  0.00004150  0.37597940    -0.54900
O649        O  0.46898381  0.01268379  0.37640603    -0.74300
C650        C  0.44354648  0.99111649  0.37071216     0.98100
O651        O  0.39420616  0.92623604  0.46861657    -0.63100
O652        O  0.55130648  0.88109729  0.50631017    -0.57900
O653        O  0.45224370  0.90161704  0.42954519    -0.94600
O654        O  0.50885104  0.88605309  0.43985843    -0.93000
O655        O  0.50212235  0.90113815  0.57218181    -0.93300
O656        O  0.43706967  0.92375074  0.57076257    -0.92100
C657        C  0.47845922  0.87963200  0.42705259     1.16900
H658        H  0.55604051  0.94907074  0.54517352     0.32900
H659        H  0.42015829  0.98996480  0.52274203     0.43700
H660        H  0.49883268  0.95098336  0.40821709     0.37300
H661        H  0.52177663  0.07887221  0.47962830     0.33700
H662        H  0.45444937  0.97832653  0.62099194     0.25500
H663        H  0.43577784  0.12600630  0.49749260     0.31500
H664        H  0.46950028  0.08816857  0.41123244     0.37400
H665        H  0.51182202  0.90415009  0.59668829     0.31800
H666        H  0.52863611  0.87085620  0.51082264     0.30700
H667        H  0.57507854  0.88985135  0.42380755     0.32400
H668        H  0.52979595  0.98900948  0.35869431     0.31400
H669        H  0.42608212  0.91554061  0.54791939     0.35400
H670        H  0.40448264  0.90614740  0.48276324     0.28100
H671        H  0.60923954  0.07189020  0.54303525     0.32300
H672        H  0.55752014  0.07046382  0.38628291     0.35200
H673        H  0.56165762  0.86359411  0.48929825     0.27800
H674        H  0.38112169  0.94117702  0.48577146     0.40700
H675        H  0.41441965  0.08834926  0.55343907     0.30700
H676        H  0.45698774  0.01564075  0.60240831     0.38300
H677        H  0.55928200  0.97904426  0.38648001     0.30200
H678        H  0.46759441  0.12088111  0.47357454     0.30200
H679        H  0.59211684  0.08673431  0.50775831     0.30500
C680        C  0.24782012  0.11764856  0.45139269    -0.03000
Zr681      Zr  0.44243320  0.05309585  0.02540769     2.17500
O682        O  0.39649170  0.09767360  0.01314998    -0.51900
O683        O  0.42967914  0.04181856  0.08592872    -0.75100
O684        O  0.38660454  0.01939522  0.01765947    -0.81800
O685        O  0.51296178  0.12370115  0.04186299    -0.83600
O686        O  0.39803920  0.96442736  0.99087333    -0.79200
O687        O  0.45696639  0.11463576  0.05239020    -0.90800
O688        O  0.46775632  0.99941072  0.10779932    -0.76800
O689        O  0.45607780  0.99056526  0.03593394    -0.86300
O690        O  0.49817866  0.04877300  0.05419310    -0.86000
O691        O  0.44236769  0.02318547  0.96791664    -0.72700
O692        O  0.48174272  0.07750020  0.98501562    -0.84900
Zr693      Zr  0.55107665  0.97977227  0.96816797     2.26400
Zr694      Zr  0.45732108  0.96097396  0.97931367     2.06300
Zr695      Zr  0.53732552  0.07149516  0.01391149     2.10000
Zr696      Zr  0.51137802  0.98683678  0.06491559     1.78800
O697        O  0.55223673  0.12567630  0.98275254    -0.93700
O698        O  0.49651826  0.92678129  0.08453375    -0.41500
O699        O  0.55191256  0.00957944  0.02553114    -0.78100
O700        O  0.51252219  0.95511499  0.00881862    -0.96800
O701        O  0.49580480  0.98396008  0.93885616    -0.90100
O702        O  0.53797051  0.04236160  0.95736114    -0.93000
C703        C  0.44104853  0.02033866  0.11008065     1.00800
C704        C  0.48463146  0.13402089  0.05484216     1.13700
C705        C  0.37762381  0.98761306  0.00475235     1.04500
O706        O  0.44121698  0.90716717  0.01046839    -0.95100
O707        O  0.48327556  0.90823095  0.95300899    -0.90900
O708        O  0.53899955  0.91843271  0.94258126    -0.84000
C709        C  0.51212251  0.89831871  0.94074842     1.11100
O710        O  0.43428470  0.08470064  0.90800503    -0.97100
Zr711      Zr  0.48265932  0.04635552  0.92845053     1.88900
O712        O  0.56016942  0.98959547  0.90666738    -0.73700
O713        O  0.42294519  0.94711938  0.92536935    -0.53000
O714        O  0.44746897  0.01654455  0.88186459    -0.97700
O715        O  0.50051970  0.10552289  0.90902671    -0.54900
O716        O  0.52272594  0.03090200  0.88244670    -0.74300
C717        C  0.54872475  0.00886620  0.88083024     0.98100
O718        O  0.59710115  0.93554838  0.98203701    -0.63100
O719        O  0.57256135  0.08695572  0.06689008    -0.57900
O720        O  0.60755862  0.00968933  0.97291314    -0.94600
O721        O  0.59658248  0.06398496  0.00069255    -0.93000
O722        O  0.54455892  0.01805497  0.11218615    -0.93300
O723        O  0.56108443  0.95276317  0.08881898    -0.92100
C724        C  0.61699658  0.04060847  0.98667715     1.16900
H725        H  0.49894537  0.06249269  0.07632785     0.32900
H726        H  0.51836947  0.92980681  0.01266181     0.43700
H727        H  0.55501606  0.05315910  0.94333052     0.37300
H728        H  0.41963315  0.02481484  0.95665114     0.33700
H729        H  0.50053799  0.92790068  0.11056577     0.25500
H730        H  0.43978592  0.94002524  0.90743898     0.31500
H731        H  0.46088879  0.99449983  0.87494903     0.37400
H732        H  0.53005795  0.01782273  0.13301909     0.31800
H733        H  0.57829268  0.11285064  0.06436085     0.30700
H734        H  0.57057109  0.13710854  0.99796552     0.32400
H735        H  0.52572732  0.10309934  0.90682487     0.31400
H736        H  0.56869990  0.93733342  0.06866916     0.35400
H737        H  0.61099579  0.94691305  0.00173895     0.28100
H738        H  0.37953937  0.09379092  0.03137668     0.32300
H739        H  0.43754874  0.08810766  0.88250213     0.35200
H740        H  0.55674377  0.08714234  0.08667458     0.27800
H741        H  0.58563083  0.91530906  0.99326337     0.40700
H742        H  0.46323101  0.89520450  0.01817518     0.30700
H743        H  0.47118031  0.92594836  0.08100723     0.38300
H744        H  0.49768372  0.12215226  0.92975700     0.30200
H745        H  0.41128938  0.92420697  0.93021864     0.30200
H746        H  0.38507267  0.08896128  0.99068887     0.30500
C747        C  0.50315828  0.27744992  0.13100853    -0.03000
Zr748      Zr  0.44190406  0.55495964  0.96282419     2.17500
O749        O  0.39257150  0.59488362  0.97418878    -0.51900
O750        O  0.43328715  0.54837738  0.89929096    -0.75100
O751        O  0.45345242  0.61747986  0.94478945    -0.81800
O752        O  0.39931614  0.46394244  0.97625017    -0.83600
O753        O  0.50911930  0.62757561  0.96100018    -0.79200
O754        O  0.38678920  0.52216719  0.95996262    -0.90800
O755        O  0.47774982  0.51496866  0.87733219    -0.76800
O756        O  0.49939307  0.55791810  0.94409969    -0.86300
O757        O  0.45967776  0.49504755  0.94458764    -0.86000
O758        O  0.47554191  0.57823599  0.01306069    -0.72700
O759        O  0.43968414  0.51835104  0.01424604    -0.84900
Zr760      Zr  0.55066648  0.48502131  0.02557803     2.26400
Zr761      Zr  0.53335316  0.57915210  0.99416524     2.06300
Zr762      Zr  0.45904805  0.45901505  0.99546935     2.10000
Zr763      Zr  0.51672091  0.49850354  0.92534304     1.78800
O764        O  0.41935650  0.43147595  0.03446817    -0.93700
O765        O  0.54906973  0.53631755  0.88710842    -0.41500
O766        O  0.51679523  0.46059271  0.97596860    -0.78100
O767        O  0.55228579  0.52041629  0.97348843    -0.96800
O768        O  0.53280711  0.54417618  0.04584855    -0.90100
O769        O  0.49322434  0.48134747  0.04493705    -0.93000
C770        C  0.44897444  0.53213157  0.87402738     1.00800
C771        C  0.37839628  0.48895840  0.96528108     1.13700
C772        C  0.48053049  0.63727814  0.94637668     1.04500
O773        O  0.57132959  0.61812856  0.96341600    -0.95100
O774        O  0.59441179  0.57157060  0.00426225    -0.90900
O775        O  0.60725007  0.51420454  0.02228589    -0.84000
C776        C  0.61588459  0.54608326  0.01267298     1.11100
O777        O  0.42351299  0.57294419  0.08304270    -0.97100
Zr778      Zr  0.47477875  0.54027803  0.06353148     1.88900
O779        O  0.55852341  0.49293650  0.08887335    -0.73700
O780        O  0.53556509  0.62563275  0.04122297    -0.53000
O781        O  0.48753056  0.59773917  0.09450034    -0.97700
O782        O  0.43878257  0.50387880  0.09958424    -0.54900
O783        O  0.51195989  0.52109730  0.11260474    -0.74300
C784        C  0.54165620  0.50550797  0.11502324     0.98100
O785        O  0.60224650  0.44654828  0.02136765    -0.63100
O786        O  0.45370941  0.41145183  0.94961850    -0.57900
O787        O  0.54006471  0.42269019  0.04204247    -0.94600
O788        O  0.48579075  0.40705727  0.02305824    -0.93000
O789        O  0.50473542  0.44052703  0.89503576    -0.93300
O790        O  0.56799597  0.46697058  0.90454970    -0.92100
C791        C  0.51477581  0.40072728  0.03917506     1.16900
H792        H  0.44428113  0.48462802  0.92651936     0.32900
H793        H  0.57498771  0.52063968  0.96427083     0.43700
H794        H  0.49213966  0.46539532  0.06470340     0.37300
H795        H  0.46755070  0.60254044  0.01928528     0.33700
H796        H  0.53679849  0.56021074  0.88708128     0.25500
H797        H  0.55694554  0.63886068  0.03746599     0.31500
H798        H  0.50970234  0.59336252  0.10771707     0.37400
H799        H  0.48163516  0.44371873  0.88333526     0.31800
H800        H  0.47709519  0.40047030  0.94833504     0.30700
H801        H  0.41130447  0.40925247  0.02154554     0.32400
H802        H  0.45445293  0.48580688  0.11120318     0.31400
H803        H  0.57437435  0.44939947  0.92324455     0.35400
H804        H  0.60539433  0.43472410  0.04454284     0.28100
H805        H  0.38702900  0.60704735  0.95153433     0.32300
H806        H  0.42593832  0.57414071  0.10922158     0.35200
H807        H  0.44001787  0.39246484  0.96017165     0.27800
H808        H  0.59582442  0.42668616  0.00431918     0.40700
H809        H  0.56928616  0.60971118  0.93832895     0.30700
H810        H  0.57104915  0.54102859  0.90046557     0.38300
H811        H  0.42462474  0.48936198  0.08227477     0.30200
H812        H  0.51686228  0.64322709  0.03468571     0.30200
H813        H  0.40171655  0.61436004  0.99032792     0.30500
Zr814      Zr  0.04928875  0.46329400  0.43862334     2.17500
O815        O  0.09689861  0.42192727  0.45465952    -0.51900
O816        O  0.06292232  0.47001965  0.37831558    -0.75100
O817        O  0.03679843  0.40097223  0.41402018    -0.81800
O818        O  0.09137371  0.55103100  0.46983732    -0.83600
O819        O  0.98054472  0.38981639  0.42224689    -0.79200
O820        O  0.10558066  0.49431535  0.44909518    -0.90800
O821        O  0.01856693  0.50150692  0.35105627    -0.76800
O822        O  0.99264367  0.46115943  0.41139403    -0.86300
O823        O  0.03262555  0.52381993  0.42135688    -0.86000
O824        O  0.01285513  0.43956246  0.48173233    -0.72700
O825        O  0.04994799  0.50106433  0.49143988    -0.84900
Zr826      Zr  0.94063261  0.53622728  0.49242514     2.26400
Zr827      Zr  0.95581531  0.44026316  0.45501148     2.06300
Zr828      Zr  0.03088461  0.56064039  0.47359038     2.10000
Zr829      Zr  0.97666037  0.52087229  0.39424073     1.78800
O830        O  0.06623024  0.60205336  0.51003185    -0.93700
O831        O  0.94196339  0.48621371  0.35063913    -0.41500
O832        O  0.97460238  0.55943537  0.44669345    -0.78100
O833        O  0.93889808  0.50047558  0.43785494    -0.96800
O834        O  0.95698058  0.47573846  0.50843992    -0.90100
O835        O  0.99730195  0.53758754  0.51842479    -0.93000
C836        C  0.04815116  0.48526024  0.35159601     1.00800
C837        C  0.11345157  0.52652119  0.46128592     1.13700
C838        C  0.00989938  0.38074379  0.41026246     1.04500
O839        O  0.91470883  0.41104348  0.41352735    -0.95100
O840        O  0.89597266  0.44767404  0.46938834    -0.90900
O841        O  0.88634442  0.50429421  0.49350589    -0.84000
C842        C  0.87669717  0.47228297  0.48346475     1.11100
O843        O  0.06571295  0.44267706  0.55138911    -0.97100
Zr844      Zr  0.01389815  0.47737948  0.53406158     1.88900
O845        O  0.93198102  0.52992355  0.55525577    -0.73700
O846        O  0.95201885  0.39161641  0.49700445    -0.53000
O847        O  0.99837648  0.42028989  0.55988933    -0.97700
O848        O  0.04823114  0.51002156  0.57964549    -0.54900
O849        O  0.97589292  0.49541034  0.57962020    -0.74300
C850        C  0.94789182  0.51399448  0.58121261     0.98100
O851        O  0.89280132  0.57621431  0.47367052    -0.63100
O852        O  0.03633805  0.60393917  0.42666528    -0.57900
O853        O  0.94957558  0.59846712  0.51657617    -0.94600
O854        O  0.00465934  0.61103882  0.50535410    -0.93000
O855        O  0.99210508  0.57727267  0.36705641    -0.93300
O856        O  0.92856884  0.55590813  0.36821502    -0.92100
C857        C  0.97581125  0.61941690  0.51879992     1.16900
H858        H  0.04870349  0.53445279  0.40585719     0.32900
H859        H  0.91569897  0.50054952  0.42764101     0.43700
H860        H  0.99840672  0.55300095  0.53947708     0.37300
H861        H  0.02004533  0.41500040  0.48740883     0.33700
H862        H  0.95574873  0.46381075  0.34581115     0.25500
H863        H  0.93365551  0.39989290  0.51283461     0.31500
H864        H  0.97350380  0.42301142  0.56407767     0.37400
H865        H  0.00123127  0.56985576  0.34387883     0.31800
H866        H  0.02774179  0.62736748  0.43674490     0.30700
H867        H  0.07385047  0.62051789  0.49362584     0.32400
H868        H  0.03367824  0.53084854  0.58756099     0.31400
H869        H  0.91722245  0.56735255  0.38875039     0.35400
H870        H  0.90369960  0.59646138  0.46187610     0.28100
H871        H  0.10293848  0.40935330  0.43224702     0.32300
H872        H  0.06404977  0.43864424  0.57702446     0.35200
H873        H  0.06144554  0.60712435  0.42525592     0.27800
H874        H  0.88073522  0.56265511  0.45402629     0.40700
H875        H  0.92162565  0.41803728  0.38982342     0.30700
H876        H  0.92224012  0.47785547  0.36370121     0.38300
H877        H  0.06661508  0.52129903  0.56664141     0.30200
H878        H  0.94178194  0.37117627  0.48292375     0.30200
H879        H  0.08656606  0.40295134  0.46868854     0.30500
Zr880      Zr  0.03300345  0.49079829  0.91944328     2.17500
O881        O  0.06637966  0.51291856  0.87174740    -0.51900
O882        O  0.02728198  0.42686832  0.90076605    -0.75100
O883        O  0.09404725  0.46851059  0.92899789    -0.81800
O884        O  0.94542937  0.51768002  0.88021447    -0.83600
O885        O  0.10824114  0.47977855  0.98708203    -0.79200
O886        O  0.99607718  0.49166957  0.86417140    -0.90800
O887        O  0.99546215  0.39968118  0.94100967    -0.76800
O888        O  0.03806126  0.46051888  0.97438352    -0.86300
O889        O  0.97648602  0.47487741  0.93491746    -0.86000
O890        O  0.05646310  0.53526010  0.96157384    -0.72700
O891        O  0.00018218  0.54731903  0.92610806    -0.84900
Zr892      Zr  0.97204821  0.54372757  0.03935408     2.26400
Zr893      Zr  0.05981963  0.50457260  0.01638778     2.06300
Zr894      Zr  0.94431076  0.53013758  0.94247653     2.10000
Zr895      Zr  0.98194557  0.44394755  0.98885832     1.78800
O896        O  0.91840276  0.58094143  0.91009702    -0.93700
O897        O  0.01611264  0.39720835  0.01957687    -0.41500
O898        O  0.94858757  0.49937048  0.99712490    -0.78100
O899        O  0.00431237  0.48684231  0.03303394    -0.96800
O900        O  0.02814883  0.55997759  0.02380490    -0.90100
O901        O  0.96692893  0.57384283  0.98429399    -0.93000
C902        C  0.01200902  0.39902086  0.91213562     1.00800
C903        C  0.96464002  0.50245203  0.85735167     1.13700
C904        C  0.11532595  0.46740249  0.95640652     1.04500
O905        O  0.08060571  0.45319694  0.05140210    -0.95100
O906        O  0.05999684  0.52224002  0.07709696    -0.90900
O907        O  0.00871694  0.54502979  0.09452910    -0.84000
C908        C  0.04070078  0.53615656  0.10045488     1.11100
O909        O  0.05131018  0.61731821  0.92076459    -0.97100
Zr910      Zr  0.02292269  0.59052216  0.96965931     1.88900
O911        O  0.97605140  0.60825777  0.05708321    -0.73700
O912        O  0.10991491  0.54131839  0.03211618    -0.53000
O913        O  0.07998303  0.61170715  0.98833890    -0.97700
O914        O  0.98961142  0.63795449  0.93894021    -0.54900
O915        O  0.01028035  0.63451081  0.01805623    -0.74300
C916        C  0.99256830  0.63548400  0.04613696     0.98100
O917        O  0.93963490  0.52063268  0.08736201    -0.63100
O918        O  0.89522594  0.49050567  0.93230641    -0.57900
O919        O  0.91110904  0.56365111  0.03120990    -0.94600
O920        O  0.89550273  0.55317234  0.97312563    -0.93000
O921        O  0.92601378  0.41953007  0.97056481    -0.93300
O922        O  0.95159238  0.41709954  0.03631023    -0.92100
C923        C  0.88909006  0.56382160  0.00459803     1.16900
H924        H  0.96545946  0.45951574  0.91690244     0.32900
H925        H  0.00631420  0.47509525  0.05560232     0.43700
H926        H  0.95196513  0.59509166  0.98574362     0.37300
H927        H  0.07927015  0.54143902  0.95497197     0.33700
H928        H  0.00653009  0.37389223  0.01040149     0.25500
H929        H  0.12640016  0.52457361  0.04449496     0.31500
H930        H  0.07623844  0.62953864  0.00791961     0.37400
H931        H  0.92768827  0.41280635  0.94518118     0.31800
H932        H  0.87789992  0.50520261  0.91867962     0.30700
H933        H  0.89513204  0.57270814  0.90235763     0.32400
H934        H  0.97302542  0.64756542  0.95613879     0.31400
H935        H  0.93737198  0.43739220  0.04594718     0.35400
H936        H  0.92039595  0.50730281  0.07536054     0.28100
H937        H  0.08059268  0.49175272  0.86400241     0.32300
H938        H  0.05628539  0.64264321  0.92863406     0.35200
H939        H  0.90286719  0.47131346  0.91540706     0.27800
H940        H  0.95460743  0.50121724  0.09779252     0.40700
H941        H  0.09839921  0.46326288  0.06823323     0.30700
H942        H  0.03913887  0.39795974  0.00951464     0.38300
H943        H  0.97533095  0.62468062  0.92076435     0.30200
H944        H  0.12057462  0.54629385  0.00951453     0.30200
H945        H  0.08298650  0.52980295  0.88359940     0.30500
C946        C  0.12628964  0.50649171  0.22579532    -0.03000
Zr947      Zr  0.54802966  0.52417127  0.46808033     2.17500
O948        O  0.59457039  0.56587513  0.48330330    -0.51900
O949        O  0.55665948  0.51225101  0.40626174    -0.75100
O950        O  0.60368038  0.49215582  0.47194325    -0.81800
O951        O  0.48551499  0.60333521  0.45638853    -0.83600
O952        O  0.59375069  0.43723570  0.49551840    -0.79200
O953        O  0.53934952  0.58405278  0.44236812    -0.90800
O954        O  0.51025722  0.48387284  0.38012740    -0.76800
O955        O  0.53248512  0.46299387  0.45384943    -0.86300
O956        O  0.49192599  0.52566015  0.44045330    -0.86000
O957        O  0.54994889  0.49458465  0.52395450    -0.72700
O958        O  0.51244506  0.55383418  0.51074621    -0.84900
Zr959      Zr  0.43953191  0.46261378  0.52507630     2.26400
Zr960      Zr  0.53337258  0.43371710  0.50914402     2.06300
Zr961      Zr  0.45643554  0.55392323  0.48274960     2.10000
Zr962      Zr  0.47568702  0.46478430  0.42762658     1.78800
O963        O  0.44355485  0.60812129  0.51855769    -0.93700
O964        O  0.49658086  0.40763521  0.40147539    -0.41500
O965        O  0.43850314  0.49288074  0.46942985    -0.78100
O966        O  0.47615914  0.43340946  0.48246419    -0.96800
O967        O  0.49642245  0.46122246  0.55151174    -0.90100
O968        O  0.45589921  0.52419267  0.53785970    -0.93000
C969        C  0.53938850  0.49927615  0.37939051     1.00800
C970        C  0.51441700  0.60762502  0.44222407     1.13700
C971        C  0.61359492  0.46077831  0.48314141     1.04500
O972        O  0.54376684  0.37869233  0.47359490    -0.95100
O973        O  0.50713260  0.38583573  0.53958708    -0.90900
O974        O  0.45228508  0.40247669  0.55285196    -0.84000
C975        C  0.47886424  0.38051225  0.55452101     1.11100
O976        O  0.56100020  0.55878755  0.58509093    -0.97100
Zr977      Zr  0.51192967  0.52220125  0.56534773     1.88900
O978        O  0.42785939  0.47684016  0.58602452    -0.73700
O979        O  0.57036378  0.41359717  0.55889151    -0.53000
O980        O  0.54672775  0.49122281  0.61101309    -0.97700
O981        O  0.49595549  0.58201870  0.58961651    -0.54900
O982        O  0.47247039  0.50924933  0.61083090    -0.74300
C983        C  0.44348954  0.49353317  0.61193951     0.98100
O984        O  0.39217294  0.42157816  0.51099227    -0.63100
O985        O  0.42014303  0.57479785  0.43278443    -0.57900
O986        O  0.38381953  0.49766473  0.51876063    -0.94600
O987        O  0.39689707  0.55082253  0.49363772    -0.93000
O988        O  0.43395573  0.49346539  0.38663075    -0.93300
O989        O  0.42989185  0.42435347  0.40687358    -0.92100
C990        C  0.37557623  0.52952411  0.50665127     1.16900
H991        H  0.49104732  0.53948410  0.41907437     0.32900
H992        H  0.46910571  0.40861080  0.47796586     0.43700
H993        H  0.43979919  0.53680104  0.55282916     0.37300
H994        H  0.57301556  0.49482015  0.53448717     0.33700
H995        H  0.49323328  0.41061204  0.37560706     0.25500
H996        H  0.58301032  0.39187069  0.54983035     0.31500
H997        H  0.53573666  0.46741853  0.61339184     0.37400
H998        H  0.44649316  0.51316613  0.37575810     0.31800
H999        H  0.41270282  0.59984125  0.43964035     0.30700
H1000       H  0.43180912  0.62511489  0.50186553     0.32400
H1001       H  0.47154284  0.58024292  0.59557703     0.31400
H1002       H  0.41933076  0.41659904  0.42870990     0.35400
H1003       H  0.37877456  0.43294742  0.49118603     0.28100
H1004       H  0.61203079  0.56109253  0.46539988     0.32300
H1005       H  0.55967099  0.56139842  0.61111926     0.35200
H1006       H  0.43590377  0.57801441  0.41332278     0.27800
H1007       H  0.40311312  0.39978299  0.49996748     0.40700
H1008       H  0.56496061  0.36759751  0.48450992     0.30700
H1009       H  0.52185379  0.40783119  0.40584708     0.38300
H1010       H  0.49549736  0.59830513  0.56917058     0.30200
H1011       H  0.58804452  0.43242967  0.56275188     0.30200
H1012       H  0.60530265  0.55684068  0.50571808     0.30500
C1013       C  0.99091350  0.74778614  0.61600133    -0.03000
Zr1014     Zr  0.21032261  0.77259684  0.67248191     2.17500
O1015       O  0.20935051  0.80658201  0.61798752    -0.51900
O1016       O  0.15050646  0.75366807  0.66671497    -0.75100
O1017       O  0.21588774  0.72969902  0.62017469    -0.81800
O1018       O  0.21208743  0.86317895  0.72058318    -0.83600
O1019       O  0.24439205  0.68002609  0.64163777    -0.79200
O1020       O  0.18173398  0.83223424  0.67702231    -0.90800
O1021       O  0.13455363  0.73556134  0.72059631    -0.76800
O1022       O  0.20490189  0.71595836  0.70028718    -0.86300
O1023       O  0.19227867  0.78531821  0.73171359    -0.86000
O1024       O  0.26789902  0.74766748  0.67321602    -0.72700
O1025       O  0.25336806  0.80996107  0.70316263    -0.84900
Zr1026     Zr  0.28760582  0.73748021  0.79085470     2.26400
Zr1027     Zr  0.26198755  0.69165206  0.70209652     2.06300
Zr1028     Zr  0.23596884  0.82052701  0.76264520     2.10000
Zr1029     Zr  0.18679628  0.72864235  0.75870975     1.78800
O1030       O  0.27000403  0.87526359  0.76949796    -0.93700
O1031       O  0.16537518  0.66687577  0.75251586    -0.41500
O1032       O  0.23038274  0.76354904  0.79032415    -0.78100
O1033       O  0.24335116  0.70110837  0.76115756    -0.96800
O1034       O  0.30567862  0.72662912  0.73201980    -0.90100
O1035       O  0.29253995  0.79488743  0.76392626    -0.93000
C1036       C  0.12802115  0.74317654  0.68795795     1.00800
C1037       C  0.18806901  0.86068627  0.69650673     1.13700
C1038       C  0.22926621  0.69724592  0.61630606     1.04500
O1039       O  0.23265371  0.63374474  0.69706381    -0.95100
O1040       O  0.29333217  0.64913610  0.73651737    -0.90900
O1041       O  0.31107994  0.67475253  0.78949321    -0.84000
C1042       C  0.30923231  0.64826685  0.76651522     1.11100
O1043       O  0.31532368  0.81138226  0.64759419    -0.97100
Zr1044     Zr  0.31020619  0.78376019  0.70497950     1.88900
O1045       O  0.34860409  0.75285178  0.79304920    -0.73700
O1046       O  0.31262282  0.66911580  0.67200402    -0.53000
O1047       O  0.35205329  0.75085052  0.66945392    -0.97700
O1048       O  0.32947328  0.84632335  0.71162697    -0.54900
O1049       O  0.36275743  0.77834619  0.74151996    -0.74300
C1050       C  0.37017278  0.76671678  0.77262881     0.98100
O1051       O  0.29128593  0.70470283  0.84615101    -0.63100
O1052       O  0.18904840  0.84875987  0.79469567    -0.57900
O1053       O  0.28288802  0.77935491  0.84340510    -0.94600
O1054       O  0.25013820  0.82827555  0.82605307    -0.93000
O1055       O  0.14989555  0.76404835  0.79771013    -0.93300
O1056       O  0.17581866  0.69956472  0.81406801    -0.92100
C1057       C  0.26751724  0.81028658  0.84974206     1.16900
H1058       H  0.17035128  0.79813820  0.73165579     0.32900
H1059       H  0.24197498  0.67807835  0.77268759     0.43700
H1060       H  0.30818911  0.81047901  0.77745061     0.37300
H1061       H  0.27546825  0.74358113  0.64945199     0.33700
H1062       H  0.14021628  0.66952605  0.75508862     0.25500
H1063       H  0.30730588  0.64371214  0.66470705     0.31500
H1064       H  0.35933431  0.72950467  0.68357216     0.37400
H1065       H  0.13411457  0.77813008  0.78174304     0.31800
H1066       H  0.18730838  0.87413117  0.78655891     0.30700
H1067       H  0.25324964  0.89482260  0.77566221     0.32400
H1068       H  0.33825835  0.84895179  0.73649351     0.31400
H1069       H  0.19648368  0.70461235  0.82949343     0.35400
H1070       H  0.31122040  0.71503396  0.85983717     0.28100
H1071       H  0.18884733  0.79789494  0.60406774     0.32300
H1072       H  0.33989363  0.81748398  0.64633524     0.35200
H1073       H  0.16793738  0.83696675  0.78502875     0.27800
H1074       H  0.27087937  0.71283961  0.85921027     0.40700
H1075       H  0.22779611  0.62765899  0.72166021     0.30700
H1076       H  0.16779482  0.66011479  0.72723724     0.38300
H1077       H  0.30805760  0.86136733  0.71051231     0.30200
H1078       H  0.31249987  0.68242922  0.64959374     0.30200
H1079       H  0.22923711  0.79699879  0.60491133     0.30500
C1080       C  0.49866123  0.76103646  0.85559060    -0.03000
C1081       C  0.44992201  0.79949936  0.82380062    -0.26800
C1082       C  0.46956860  0.76670900  0.82615397    -0.14900
C1083       C  0.46033749  0.73825593  0.80147214     0.35700
C1084       C  0.42854650  0.73990398  0.78232657    -0.26300
C1085       C  0.40608106  0.76978343  0.78632228    -0.15500
C1086       C  0.41778047  0.80092211  0.80548384     0.36800
N1087       N  0.39760002  0.83410748  0.80769396    -0.89800
H1088       H  0.45818320  0.82402077  0.83768262     0.17900
H1089       H  0.42042800  0.71659911  0.76614750     0.17900
N1090       N  0.48138861  0.70606485  0.79822957    -0.88800
H1091       H  0.39117174  0.83817591  0.83406616     0.35300
H1092       H  0.37451583  0.83239969  0.79269071     0.40400
H1093       H  0.46682984  0.68368572  0.80438847     0.40000
H1094       H  0.48794864  0.70298180  0.77181145     0.34900
C1095       C  0.04875010  0.71337001  0.63302285    -0.26800
C1096       C  0.02522869  0.74266857  0.63891665    -0.14900
C1097       C  0.03470128  0.76847681  0.66633915     0.35700
C1098       C  0.06755883  0.76676438  0.68344305    -0.26300
C1099       C  0.09199239  0.74034041  0.67369980    -0.15500
C1100       C  0.08231354  0.71294117  0.64879472     0.36800
N1101       N  0.10691228  0.68510781  0.63907951    -0.89800
H1102       H  0.04177618  0.69090669  0.61548358     0.17900
H1103       H  0.07472159  0.78769357  0.70294538     0.17900
N1104       N  0.01206869  0.79831915  0.67504563    -0.88800
H1105       H  0.09624304  0.66744718  0.61965558     0.35300
H1106       H  0.11266948  0.66960323  0.66142769     0.40400
H1107       H  0.02451334  0.82261546  0.67066899     0.40000
H1108       H  0.00741077  0.79737564  0.70200056     0.34900
C1109       C  0.09475107  0.54456116  0.13524313    -0.26800
C1110       C  0.05892155  0.54096628  0.13559930    -0.14900
C1111       C  0.04423906  0.53526149  0.16827449     0.35700
C1112       C  0.06592606  0.52791098  0.19816447    -0.26300
C1113       C  0.10210552  0.52272003  0.19549372    -0.15500
C1114       C  0.11626989  0.53471261  0.16392052     0.36800
N1115       N  0.15269415  0.53485601  0.15974892    -0.89800
H1116       H  0.10668352  0.55166609  0.11106184     0.17900
H1117       H  0.05378174  0.52503974  0.22296282     0.17900
N1118       N  0.00775060  0.53549337  0.17171584    -0.88800
H1119       H  0.15959919  0.56137767  0.15422006     0.35300
H1120       H  0.15852970  0.51804300  0.13800725     0.40400
H1121       H  0.99730820  0.51510846  0.15500063     0.40000
H1122       H  0.99780347  0.56070058  0.16350993     0.34900
C1123       C  0.95369755  0.69522194  0.58643939    -0.26800
C1124       C  0.98414363  0.71607988  0.58764900    -0.14900
C1125       C  0.00705356  0.70875983  0.55996403     0.35700
C1126       C  0.00213629  0.67882669  0.53667013    -0.26300
C1127       C  0.97479804  0.65479032  0.53956501    -0.15500
C1128       C  0.94959101  0.66395144  0.56418959     0.36800
N1129       N  0.92029191  0.64126572  0.56735038    -0.89800
H1130       H  0.93302103  0.70215309  0.60357524     0.17900
H1131       H  0.02103769  0.67371648  0.51684252     0.17900
N1132       N  0.03616467  0.73113984  0.55568647    -0.88800
H1133       H  0.90348447  0.65263662  0.58562094     0.35300
H1134       H  0.92924110  0.61663688  0.57789887     0.40400
H1135       H  0.03395058  0.74211113  0.53045181     0.40000
H1136       H  0.05843671  0.71468869  0.55699186     0.34900
C1137       C  0.11807837  0.51012115  0.29282243    -0.26800
C1138       C  0.10646326  0.49634479  0.25915626    -0.14900
C1139       C  0.07770388  0.47246908  0.25854560     0.35700
C1140       C  0.05873340  0.46961291  0.28903581    -0.26300
C1141       C  0.06871935  0.48770623  0.32060318    -0.15500
C1142       C  0.09954640  0.50702969  0.32283501     0.36800
N1143       N  0.11269770  0.52515297  0.35463956    -0.89800
H1144       H  0.14204298  0.52424847  0.29669838     0.17900
H1145       H  0.03604848  0.45293926  0.28808711     0.17900
N1146       N  0.06637194  0.45109260  0.22800313    -0.88800
H1147       H  0.13403660  0.51003671  0.36413316     0.35300
H1148       H  0.09508587  0.52668811  0.37453688     0.40400
H1149       H  0.08107457  0.45504251  0.20631111     0.40000
H1150       H  0.04121817  0.45940219  0.22076533     0.34900
C1151       C  0.45461129  0.68198024  0.90410667    -0.26800
C1152       C  0.48082545  0.67284358  0.92872235    -0.14900
C1153       C  0.50914379  0.69644030  0.93372822     0.35700
C1154       C  0.51325019  0.72427950  0.90991002    -0.26300
C1155       C  0.48921186  0.73099768  0.88180523    -0.15500
C1156       C  0.45744260  0.71173846  0.88206092     0.36800
N1157       N  0.42702663  0.72286027  0.86222193    -0.89800
H1158       H  0.43156210  0.66589919  0.90176931     0.17900
H1159       H  0.53630808  0.74028519  0.91260366     0.17900
N1160       N  0.53419315  0.69176443  0.96248824    -0.88800
H1161       H  0.41849658  0.70066384  0.84658565     0.35300
H1162       H  0.40786514  0.72942351  0.87998054     0.40400
H1163       H  0.52160618  0.69668961  0.98604032     0.40000
H1164       H  0.55354669  0.71101205  0.96191267     0.34900
C1165       C  0.50731330  0.30376612  0.06783676    -0.26800
C1166       C  0.50752497  0.30895708  0.10507078    -0.14900
C1167       C  0.51093394  0.34518662  0.11901401     0.35700
C1168       C  0.51655062  0.37367619  0.09661074    -0.26300
C1169       C  0.51684090  0.36796623  0.06006438    -0.15500
C1170       C  0.51165047  0.33278091  0.04527613     0.36800
N1171       N  0.50988045  0.32558267  0.00767788    -0.89800
H1172       H  0.50207507  0.27756259  0.05553579     0.17900
H1173       H  0.51906210  0.40099568  0.10789865     0.17900
N1174       N  0.50988553  0.35296341  0.15630882    -0.88800
H1175       H  0.52975335  0.30704339  0.00195334     0.35300
H1176       H  0.51454705  0.34889159  0.99362219     0.40400
H1177       H  0.48986451  0.37181673  0.16046580     0.40000
H1178       H  0.53298022  0.36507910  0.16482041     0.34900
C1179       C  0.48142610  0.84194033  0.92160454    -0.26800
C1180       C  0.51215851  0.86163038  0.92251183    -0.14900
C1181       C  0.54053681  0.84600602  0.90541002     0.35700
C1182       C  0.53648176  0.81304861  0.88577878    -0.26300
C1183       C  0.50400282  0.79604355  0.88031047    -0.15500
C1184       C  0.47718099  0.80988010  0.90140697     0.36800
N1185       N  0.44506160  0.79168291  0.90231288    -0.89800
H1186       H  0.45956416  0.85176045  0.93613455     0.17900
H1187       H  0.55943222  0.80092888  0.87521561     0.17900
N1188       N  0.57342506  0.86318524  0.90805176    -0.88800
H1189       H  0.42524265  0.80990556  0.89473189     0.35300
H1190       H  0.44145757  0.78451503  0.92843726     0.40400
H1191       H  0.57122116  0.88688626  0.89339006     0.40000
H1192       H  0.59216278  0.84685659  0.89606521     0.34900
C1193       C  0.46911339  0.21692700  0.11744026    -0.26800
C1194       C  0.49855203  0.23860068  0.11258243    -0.14900
C1195       C  0.52371940  0.22292656  0.09070109     0.35700
C1196       C  0.51735546  0.19037946  0.07152987    -0.26300
C1197       C  0.48690248  0.17038399  0.07435799    -0.15500
C1198       C  0.46277672  0.18411680  0.09831116     0.36800
N1199       N  0.43183463  0.16531713  0.10442534    -0.89800
H1200       H  0.45022685  0.22497315  0.13636119     0.17900
H1201       H  0.53730545  0.18064262  0.05435370     0.17900
N1202       N  0.55599108  0.24010018  0.08721842    -0.88800
H1203       H  0.43841158  0.13930947  0.11337626     0.35300
H1204       H  0.41746461  0.16295703  0.08049944     0.40400
H1205       H  0.55902739  0.24500848  0.06044632     0.40000
H1206       H  0.57559279  0.22197163  0.09557919     0.34900
C1207       C  0.34610390  0.09259661  0.44984309    -0.26800
C1208       C  0.34725829  0.05422773  0.44988835    -0.14900
C1209       C  0.31564883  0.03625088  0.44410639     0.35700
C1210       C  0.28425823  0.05657468  0.44231255    -0.26300
C1211       C  0.28274169  0.09502400  0.44796001    -0.15500
C1212       C  0.31494399  0.11300679  0.44900541     0.36800
N1213       N  0.31623173  0.15214189  0.45043761    -0.89800
H1214       H  0.37002572  0.10718520  0.45217170     0.17900
H1215       H  0.26097193  0.04158232  0.43700482     0.17900
N1216       N  0.31432720  0.99741795  0.44101624    -0.88800
H1217       H  0.34143920  0.16090181  0.44844926     0.35300
H1218       H  0.30851394  0.16137097  0.47521586     0.40400
H1219       H  0.32542395  0.98643821  0.46414447     0.40000
H1220       H  0.32882496  0.98878560  0.41962760     0.34900
C1221       C  0.96169847  0.79254863  0.57248076    -0.26800
C1222       C  0.99172129  0.78318438  0.59329369    -0.14900
C1223       C  0.02098138  0.80567924  0.58968653     0.35700
C1224       C  0.01758609  0.83814515  0.57114621    -0.26300
C1225       C  0.98686178  0.84838999  0.55349992    -0.15500
C1226       C  0.95879233  0.82466242  0.55302495     0.36800
N1227       N  0.92702482  0.83217648  0.53344128    -0.89800
H1228       H  0.93961851  0.77506466  0.57228316     0.17900
H1229       H  0.03986223  0.85519738  0.56963721     0.17900
N1230       N  0.05500097  0.79520331  0.60204330    -0.88800
H1231       H  0.92371275  0.81144281  0.51421229     0.35300
H1232       H  0.92804171  0.85643186  0.51984238     0.40400
H1233       H  0.06465936  0.81595617  0.61887092     0.40000
H1234       H  0.07069924  0.79306528  0.58032471     0.34900
C1235       C  0.17756614  0.04777423  0.47245356    -0.26800
C1236       C  0.14985666  0.05728743  0.44922360    -0.14900
C1237       C  0.15451758  0.08564617  0.42557370     0.35700
C1238       C  0.18599186  0.10338165  0.42568250    -0.26300
C1239       C  0.21455903  0.09381666  0.44860572    -0.15500
C1240       C  0.20903283  0.06589370  0.47296704     0.36800
N1241       N  0.23477481  0.05657508  0.49956321    -0.89800
H1242       H  0.17448479  0.02680729  0.49160705     0.17900
H1243       H  0.18657595  0.12647361  0.40870815     0.17900
N1244       N  0.12699547  0.09926371  0.40295181    -0.88800
H1245       H  0.24052900  0.02873858  0.49696553     0.35300
H1246       H  0.22437641  0.06125825  0.52433281     0.40400
H1247       H  0.10659051  0.10689042  0.41877168     0.40000
H1248       H  0.11923917  0.07859561  0.38505315     0.34900
C1249       C  0.43967419  0.01439199  0.17512205    -0.26800
C1250       C  0.42166885  0.01893954  0.14264378    -0.14900
C1251       C  0.38543005  0.02100249  0.14185008     0.35700
C1252       C  0.36828556  0.01635321  0.17278733    -0.26300
C1253       C  0.38575651  0.00986039  0.20575929    -0.15500
C1254       C  0.42246361  0.01150673  0.20674439     0.36800
N1255       N  0.44275614  0.01317741  0.23921033    -0.89800
H1256       H  0.46756918  0.01443170  0.17621567     0.17900
H1257       H  0.34040725  0.01713262  0.17091540     0.17900
N1258       N  0.36503316  0.02667691  0.10992950    -0.88800
H1259       H  0.46132697  0.99220346  0.23865076     0.35300
H1260       H  0.45581304  0.03777591  0.24041684     0.40400
H1261       H  0.37227588  0.00724828  0.09093413     0.40000
H1262       H  0.36972325  0.05260432  0.10081068     0.34900
C1263       C  0.37750801  0.02326738  0.30340019    -0.26800
C1264       C  0.38241314  0.99924216  0.27400417    -0.14900
C1265       C  0.40444500  0.96837899  0.27980215     0.35700
C1266       C  0.42492054  0.96613716  0.31132150    -0.26300
C1267       C  0.42331058  0.99375737  0.33744778    -0.15500
C1268       C  0.39834478  0.02157033  0.33425722     0.36800
N1269       N  0.39334993  0.04722494  0.36310914    -0.89800
H1270       H  0.35722790  0.04372438  0.30304353     0.17900
H1271       H  0.44233706  0.94303055  0.31521844     0.17900
N1272       N  0.40676794  0.93982325  0.25344269    -0.88800
H1273       H  0.37295233  0.06534400  0.35713898     0.35300
H1274       H  0.41544436  0.06287110  0.36621412     0.40400
H1275       H  0.39940582  0.91565895  0.26466236     0.40000
H1276       H  0.43246140  0.93654681  0.24681484     0.34900
C1277       C  0.19781755  0.41757424  0.98634232    -0.26800
C1278       C  0.22005211  0.42162951  0.95835557    -0.14900
C1279       C  0.20735404  0.44369020  0.92979007     0.35700
C1280       C  0.17285627  0.45703086  0.92819209    -0.26300
C1281       C  0.15044232  0.45000488  0.95507484    -0.15500
C1282       C  0.16359530  0.43022304  0.98448972     0.36800
N1283       N  0.14201529  0.42254276  0.01300725    -0.89800
H1284       H  0.20646351  0.40457917  0.01045332     0.17900
H1285       H  0.16388730  0.47357984  0.90622893     0.17900
N1286       N  0.22924608  0.45194256  0.90177466    -0.88800
H1287       H  0.15326045  0.43361259  0.03638744     0.35300
H1288       H  0.14129895  0.39430712  0.01547209     0.40400
H1289       H  0.21768255  0.44256435  0.87788079     0.40000
H1290       H  0.23094845  0.48024586  0.90081059     0.34900
C1291       C  0.30433478  0.43454353  0.92645463    -0.26800
C1292       C  0.28331821  0.43211382  0.95582498    -0.14900
C1293       C  0.28865429  0.45939912  0.98329484     0.35700
C1294       C  0.31837906  0.48080138  0.98422609    -0.26300
C1295       C  0.34259892  0.47687560  0.95799619    -0.15500
C1296       C  0.33472885  0.45410321  0.92840168     0.36800
N1297       N  0.35800446  0.44896325  0.90041878    -0.89800
H1298       H  0.29870206  0.41971216  0.90201214     0.17900
H1299       H  0.32367070  0.49880711  0.00686444     0.17900
N1300       N  0.26550880  0.46534253  0.01140116    -0.88800
H1301       H  0.38126869  0.43819112  0.91082251     0.35300
H1302       H  0.36255971  0.47446804  0.89064947     0.40400
H1303       H  0.26216441  0.44124750  0.02461903     0.40000
H1304       H  0.24186537  0.47478822  0.00078180     0.34900
C1305       C  0.14152446  0.45592356  0.17922315    -0.26800
C1306       C  0.14600702  0.47118985  0.21385493    -0.14900
C1307       C  0.17081276  0.45394889  0.23715372     0.35700
C1308       C  0.19248178  0.42631025  0.22451778    -0.26300
C1309       C  0.18910101  0.41339522  0.18965630    -0.15500
C1310       C  0.16287123  0.42758517  0.16706152     0.36800
N1311       N  0.15770099  0.41306932  0.13173949    -0.89800
H1312       H  0.12134161  0.46541173  0.16104202     0.17900
H1313       H  0.21118112  0.41369214  0.24273322     0.17900
N1314       N  0.17538850  0.46537964  0.27346715    -0.88800
H1315       H  0.15987806  0.43432402  0.11418764     0.35300
H1316       H  0.13258839  0.40350379  0.12892849     0.40400
H1317       H  0.20084648  0.47340107  0.27810437     0.40000
H1318       H  0.17132321  0.44302464  0.28918843     0.34900
C1319       C  0.24456057  0.15188930  0.35436075    -0.26800
C1320       C  0.24253226  0.18997122  0.35787031    -0.14900
C1321       C  0.24407428  0.20537306  0.39275475     0.35700
C1322       C  0.24648595  0.18263726  0.42249060    -0.26300
C1323       C  0.24721264  0.14410883  0.41897608    -0.15500
C1324       C  0.24729186  0.12928226  0.38374700     0.36800
N1325       N  0.24893961  0.09068292  0.37743336    -0.89800
H1326       H  0.24430408  0.13907913  0.32821638     0.17900
H1327       H  0.24825180  0.19570286  0.44838259     0.17900
N1328       N  0.24261587  0.24394252  0.39908420    -0.88800
H1329       H  0.27052907  0.08455522  0.36270288     0.35300
H1330       H  0.22705636  0.08311553  0.36218139     0.40400
H1331       H  0.22024719  0.25443126  0.38643454     0.40000
H1332       H  0.26403930  0.25540293  0.38835639     0.34900
C1333       C  0.46403828  0.29311194  0.18473785    -0.26800
C1334       C  0.46810188  0.28868423  0.14793519    -0.14900
C1335       C  0.43794202  0.29451437  0.12535835     0.35700
C1336       C  0.40603019  0.30245347  0.13943627    -0.26300
C1337       C  0.40168207  0.30218010  0.17565832    -0.15500
C1338       C  0.43118738  0.29824561  0.19879883     0.36800
N1339       N  0.42882660  0.29931524  0.23660689    -0.89800
H1340       H  0.48593351  0.29165586  0.20315423     0.17900
H1341       H  0.38364592  0.30487001  0.12142983     0.17900
N1342       N  0.43890152  0.28997452  0.08767598    -0.88800
H1343       H  0.43608924  0.27357063  0.24580642     0.35300
H1344       H  0.40358962  0.30451544  0.24390923     0.40400
H1345       H  0.43028099  0.31428809  0.07619959     0.40000
H1346       H  0.42189330  0.26949951  0.07938002     0.34900
C1347       C  0.33973207  0.10743186  0.24596427    -0.26800
C1348       C  0.30413520  0.10892445  0.23861696    -0.14900
C1349       C  0.28652583  0.07650799  0.23071937     0.35700
C1350       C  0.30507002  0.04327221  0.23087632    -0.26300
C1351       C  0.34107520  0.04156565  0.23871972    -0.15500
C1352       C  0.35831124  0.07496198  0.24454172     0.36800
N1353       N  0.39501967  0.07616830  0.24932188    -0.89800
H1354       H  0.35395362  0.13210070  0.25167964     0.17900
H1355       H  0.29112802  0.01916653  0.22293355     0.17900
N1356       N  0.25039477  0.07742047  0.22095865    -0.88800
H1357       H  0.40113784  0.08897922  0.27372975     0.35300
H1358       H  0.40432792  0.09208234  0.22947007     0.40400
H1359       H  0.24119449  0.05106096  0.21684370     0.40000
H1360       H  0.24744684  0.09017094  0.19660237     0.34900
C1361       C  0.23891529  0.34744215  0.99502931    -0.26800
C1362       C  0.26289480  0.37520828  0.99003269    -0.14900
C1363       C  0.29180540  0.37609529  0.01469695     0.35700
C1364       C  0.29166233  0.35632024  0.04619992    -0.26300
C1365       C  0.26530708  0.33230870  0.05278527    -0.15500
C1366       C  0.23940686  0.32666099  0.02593890     0.36800
N1367       N  0.21280910  0.30086953  0.03055839    -0.89800
H1368       H  0.21797125  0.34362397  0.97558473     0.17900
H1369       H  0.31301589  0.35914354  0.06539743     0.17900
N1370       N  0.32233396  0.39515905  0.00768305    -0.88800
H1371       H  0.19618069  0.29935386  0.00811285     0.35300
H1372       H  0.19804715  0.31064527  0.05133558     0.40400
H1373       H  0.34277795  0.37625742  0.00685988     0.40000
H1374       H  0.32759346  0.41333908  0.02886438     0.34900
C1375       C  0.98002750  0.33103867  0.37511017    -0.26800
C1376       C  0.01108712  0.34481339  0.39005474    -0.14900
C1377       C  0.04107751  0.32288103  0.38711423     0.35700
C1378       C  0.03932637  0.28895758  0.36854001    -0.26300
C1379       C  0.00896023  0.27677779  0.34991397    -0.15500
C1380       C  0.97835046  0.29758051  0.35615825     0.36800
N1381       N  0.94495872  0.28440073  0.34563822    -0.89800
H1382       H  0.95617937  0.34629318  0.37838068     0.17900
H1383       H  0.06261374  0.27250199  0.36711528     0.17900
N1384       N  0.07311813  0.33445019  0.40359161    -0.88800
H1385       H  0.93237450  0.30387114  0.32976050     0.35300
H1386       H  0.93085815  0.28199642  0.36832412     0.40400
H1387       H  0.08130968  0.35648342  0.38946631     0.40000
H1388       H  0.09210764  0.31409288  0.40106204     0.34900
C1389       C  0.98709662  0.20579316  0.37836445    -0.26800
C1390       C  0.01524092  0.21115584  0.35683388    -0.14900
C1391       C  0.04629863  0.19161698  0.36585552     0.35700
C1392       C  0.04556126  0.16200222  0.38844129    -0.26300
C1393       C  0.01571614  0.15346276  0.40553345    -0.15500
C1394       C  0.98678715  0.17708143  0.40217281     0.36800
N1395       N  0.95630991  0.17047539  0.42095573    -0.89800
H1396       H  0.96405835  0.22242799  0.37464589     0.17900
H1397       H  0.06874215  0.14584376  0.39290821     0.17900
N1398       N  0.07900694  0.20261063  0.35436363    -0.88800
H1399       H  0.93638050  0.18846503  0.41315874     0.35300
H1400       H  0.96193555  0.17645695  0.44772164     0.40400
H1401       H  0.09443225  0.20944651  0.37678925     0.40000
H1402       H  0.09079082  0.18032474  0.34169111     0.34900
C1403       C  0.08342856  0.20683064  0.26423647    -0.26800
C1404       C  0.10241306  0.23850516  0.26191071    -0.14900
C1405       C  0.08930947  0.27129816  0.27701137     0.35700
C1406       C  0.05845878  0.27144767  0.29460623    -0.26300
C1407       C  0.04143582  0.23912611  0.30152874    -0.15500
C1408       C  0.05266810  0.20706619  0.28277957     0.36800
N1409       N  0.03356864  0.17434817  0.28301834    -0.89800
H1410       H  0.09232927  0.18183581  0.25147911     0.17900
H1411       H  0.04828985  0.29750717  0.30344624     0.17900
N1412       N  0.10802204  0.30451840  0.27554672    -0.88800
H1413       H  0.02648844  0.16707730  0.25684106     0.35300
H1414       H  0.04965093  0.15365759  0.29325988     0.40400
H1415       H  0.13103287  0.30101739  0.29053899     0.40000
H1416       H  0.09476695  0.32629469  0.28746280     0.34900
C1417       C  0.89174930  0.99978265  0.16112975    -0.26800
C1418       C  0.91200217  0.00418740  0.19279496    -0.14900
C1419       C  0.94793300  0.01037242  0.18982472     0.35700
C1420       C  0.96165833  0.01126562  0.15637510    -0.26300
C1421       C  0.94081864  0.00767279  0.12549744    -0.15500
C1422       C  0.90536151  0.00130249  0.12809085     0.36800
N1423       N  0.88186419  0.99795109  0.09794553    -0.89800
H1424       H  0.86422380  0.99621711  0.16217056     0.17900
H1425       H  0.98890565  0.01619292  0.15467115     0.17900
N1426       N  0.97045454  0.01917844  0.21964891    -0.88800
H1427       H  0.88799341  0.97437748  0.08331116     0.35300
H1428       H  0.88349623  0.02090566  0.08240633     0.40400
H1429       H  0.98050847  0.04493228  0.21617235     0.40000
H1430       H  0.99106544  0.00043751  0.22008345     0.34900
C1431       C  0.91143569  0.04473968  0.28315775    -0.26800
C1432       C  0.91449063  0.01318682  0.26100909    -0.14900
C1433       C  0.93723603  0.98470392  0.27269735     0.35700
C1434       C  0.95636801  0.98881658  0.30456366    -0.26300
C1435       C  0.95311725  0.02055281  0.32524291    -0.15500
C1436       C  0.93134422  0.04908809  0.31431262     0.36800
N1437       N  0.92824314  0.08159823  0.33609833    -0.89800
H1438       H  0.89238473  0.06577786  0.27788264     0.17900
H1439       H  0.97248905  0.96637751  0.31407783     0.17900
N1440       N  0.94072071  0.95143162  0.25241398    -0.88800
H1441       H  0.91093545  0.10028001  0.32430123     0.35300
H1442       H  0.95225131  0.09392891  0.33750618     0.40400
H1443       H  0.93374132  0.93000437  0.26807314     0.40000
H1444       H  0.96661515  0.94747382  0.24678373     0.34900
C1445       C  0.83175061  0.04081246  0.21801612    -0.26800
C1446       C  0.86810782  0.04242845  0.21997267    -0.14900
C1447       C  0.88301859  0.07663841  0.21365401     0.35700
C1448       C  0.86239186  0.10779474  0.21112943    -0.26300
C1449       C  0.82697866  0.10630988  0.21478153    -0.15500
C1450       C  0.81114931  0.07251918  0.21677208     0.36800
N1451       N  0.77433295  0.07057229  0.21766147    -0.89800
H1452       H  0.81885336  0.01514747  0.21793234     0.17900
H1453       H  0.87468645  0.13375612  0.20866359     0.17900
N1454       N  0.91946595  0.08052986  0.21230401    -0.88800
H1455       H  0.76676393  0.04362011  0.21973141     0.35300
H1456       H  0.76396660  0.07974868  0.19344825     0.40400
H1457       H  0.92755915  0.09922531  0.23211017     0.40000
H1458       H  0.92470346  0.09126469  0.18783952     0.34900
C1459       C  0.92309195  0.20776883  0.28037214    -0.26800
C1460       C  0.91374924  0.23899629  0.26178154    -0.14900
C1461       C  0.93819061  0.26648110  0.25935373     0.35700
C1462       C  0.96999671  0.26334753  0.27831079    -0.26300
C1463       C  0.97803912  0.23441024  0.30163237    -0.15500
C1464       C  0.95484581  0.20418136  0.29926631     0.36800
N1465       N  0.96178428  0.16875577  0.31346728    -0.89800
H1466       H  0.90479599  0.18597599  0.28119387     0.17900
H1467       H  0.98741719  0.28584055  0.27734015     0.17900
N1468       N  0.93096784  0.29892166  0.23968198    -0.88800
H1469       H  0.94588217  0.16513704  0.33459847     0.35300
H1470       H  0.98720457  0.16360865  0.32128154     0.40400
H1471       H  0.90691133  0.29789142  0.22636310     0.40000
H1472       H  0.94904816  0.29987079  0.22010758     0.34900
C1473       C  0.53797233  0.25265873  0.18651920    -0.26800
C1474       C  0.53669951  0.27562964  0.15689821    -0.14900
C1475       C  0.56840258  0.29383123  0.15077968     0.35700
C1476       C  0.59574023  0.29369209  0.17603008    -0.26300
C1477       C  0.59639282  0.27162864  0.20528346    -0.15500
C1478       C  0.56725918  0.25013447  0.21032770     0.36800
N1479       N  0.56672346  0.22499728  0.23871798    -0.89800
H1480       H  0.51609846  0.23588715  0.19092324     0.17900
H1481       H  0.61885896  0.30804872  0.17024991     0.17900
N1482       N  0.57538183  0.30975277  0.11767641    -0.88800
H1483       H  0.54678489  0.23335190  0.25490841     0.35300
H1484       H  0.58937570  0.22624981  0.25454930     0.40400
H1485       H  0.59665368  0.29617246  0.10712397     0.40000
H1486       H  0.58218717  0.33686383  0.12255012     0.34900
C1487       C  0.03517936  0.32364178  0.84340709    -0.26800
C1488       C  0.01359472  0.29475463  0.85175947    -0.14900
C1489       C  0.98838666  0.30344462  0.87711982     0.35700
C1490       C  0.98874379  0.33696445  0.89619812    -0.26300
C1491       C  0.01280033  0.36389598  0.89033974    -0.15500
C1492       C  0.03592295  0.35713002  0.86284573     0.36800
N1493       N  0.06041847  0.38406382  0.85464186    -0.89800
H1494       H  0.05213296  0.32048263  0.82171376     0.17900
H1495       H  0.96957871  0.34190803  0.91578000     0.17900
N1496       N  0.96211341  0.27818937  0.88392575    -0.88800
H1497       H  0.07453135  0.37561676  0.83290743     0.35300
H1498       H  0.07810134  0.38617510  0.87619457     0.40400
H1499       H  0.93828876  0.29057355  0.87748202     0.40000
H1500       H  0.96281629  0.27307941  0.91098116     0.34900
C1501       C  0.03446268  0.19124591  0.91253825    -0.26800
C1502       C  0.03417330  0.15721724  0.89522891    -0.14900
C1503       C  0.03149235  0.15557843  0.85812961     0.35700
C1504       C  0.02659980  0.18796074  0.83920673    -0.26300
C1505       C  0.02380452  0.22287445  0.85620099    -0.15500
C1506       C  0.03045294  0.22388469  0.89385158     0.36800
N1507       N  0.03426036  0.25723352  0.91387548    -0.89800
H1508       H  0.03719158  0.19254861  0.94118472     0.17900
H1509       H  0.02270295  0.18566549  0.81074751     0.17900
N1510       N  0.03152920  0.12078737  0.83986509    -0.88800
H1511       H  0.01698131  0.25751568  0.93427031     0.35300
H1512       H  0.05902361  0.25735700  0.92580275     0.40400
H1513       H  0.05566519  0.10840741  0.84475230     0.40000
H1514       H  0.02879922  0.12403643  0.81250807     0.34900
C1515       C  0.03596813  0.24285754  0.76702240    -0.26800
C1516       C  0.04380931  0.25347321  0.80316810    -0.14900
C1517       C  0.07967457  0.25616881  0.81289246     0.35700
C1518       C  0.10424890  0.25090498  0.78737161    -0.26300
C1519       C  0.09623561  0.24277130  0.75170272    -0.15500
C1520       C  0.06129485  0.23823843  0.74140910     0.36800
N1521       N  0.05020250  0.23030763  0.70535122    -0.89800
H1522       H  0.00998073  0.23703145  0.75786296     0.17900
H1523       H  0.13064974  0.25451664  0.79577957     0.17900
N1524       N  0.09311859  0.26418609  0.84822076    -0.88800
H1525       H  0.03869325  0.20484659  0.70461768     0.35300
H1526       H  0.07099452  0.22816996  0.68888909     0.40400
H1527       H  0.07412324  0.26872891  0.86606261     0.40000
H1528       H  0.10651298  0.28852589  0.84772983     0.34900
C1529       C  0.28528035  0.33539720  0.87981124    -0.26800
C1530       C  0.25455675  0.33187634  0.85898810    -0.14900
C1531       C  0.22384631  0.34603732  0.87387122     0.35700
C1532       C  0.22513209  0.36584609  0.90560645    -0.26300
C1533       C  0.25621672  0.37422728  0.92417151    -0.15500
C1534       C  0.28604860  0.35482419  0.91274522     0.36800
N1535       N  0.31741342  0.35542584  0.93401020    -0.89800
H1536       H  0.30885007  0.32283367  0.87072788     0.17900
H1537       H  0.20057269  0.37447389  0.91552022     0.17900
N1538       N  0.19026722  0.34167822  0.85767223    -0.88800
H1539       H  0.33684031  0.36516897  0.91876828     0.35300
H1540       H  0.32403990  0.32862666  0.94046036     0.40400
H1541       H  0.18475266  0.31399209  0.85559872     0.40000
H1542       H  0.18933800  0.35411076  0.83317077     0.34900
C1543       C  0.25943393  0.14507946  0.55326173    -0.26800
C1544       C  0.23135044  0.16880706  0.55873537    -0.14900
C1545       C  0.20922678  0.17668117  0.52902933     0.35700
C1546       C  0.21601678  0.16070356  0.49539472    -0.26300
C1547       C  0.24501989  0.13744034  0.48920134    -0.15500
C1548       C  0.26634716  0.12917255  0.52000021     0.36800
N1549       N  0.29458097  0.10356957  0.51895610    -0.89800
H1550       H  0.27670440  0.13852153  0.57559423     0.17900
H1551       H  0.19809347  0.16669504  0.47349781     0.17900
N1552       N  0.18046060  0.20167541  0.53131755    -0.88800
H1553       H  0.29043226  0.08283893  0.53658281     0.35300
H1554       H  0.31697799  0.11688489  0.52775251     0.40400
H1555       H  0.17865758  0.21293539  0.55674852     0.40000
H1556       H  0.15809577  0.18691862  0.52585732     0.34900
C1557       C  0.51440244  0.30999268  0.61808618    -0.26800
C1558       C  0.49259997  0.27981055  0.61236987    -0.14900
C1559       C  0.46319058  0.28524672  0.58891241     0.35700
C1560       C  0.45750713  0.31864876  0.57131133    -0.26300
C1561       C  0.48000838  0.34771894  0.57711702    -0.15500
C1562       C  0.50815565  0.34336194  0.60153023     0.36800
N1563       N  0.53049967  0.37342559  0.60968681    -0.89800
H1564       H  0.53559877  0.30909951  0.63738417     0.17900
H1565       H  0.43587351  0.32148875  0.55248568     0.17900
N1566       N  0.43878454  0.25687978  0.58298563    -0.88800
H1567       H  0.55037564  0.36610524  0.62778549     0.35300
H1568       H  0.51594552  0.39393596  0.62202954     0.40400
H1569       H  0.43697492  0.25065077  0.55585037     0.40000
H1570       H  0.41477137  0.26690817  0.59052330     0.34900
C1571       C  0.50463222  0.20810150  0.57562935    -0.26800
C1572       C  0.50263188  0.20815572  0.61290440    -0.14900
C1573       C  0.51079142  0.17425221  0.62962045     0.35700
C1574       C  0.51828993  0.14252879  0.60956150    -0.26300
C1575       C  0.51796788  0.14265675  0.57270098    -0.15500
C1576       C  0.51125407  0.17606294  0.55555215     0.36800
N1577       N  0.51128720  0.17869411  0.51769393    -0.89800
H1578       H  0.50160655  0.23305999  0.56133784     0.17900
H1579       H  0.52266065  0.11704405  0.62301935     0.17900
N1580       N  0.51118416  0.17160247  0.66734146    -0.88800
H1581       H  0.48615401  0.18512956  0.50866653     0.35300
H1582       H  0.51834273  0.15402132  0.50548256     0.40400
H1583       H  0.53573915  0.16261873  0.67603670     0.40000
H1584       H  0.49365053  0.15189133  0.67368864     0.34900
C1585       C  0.44306810  0.21465540  0.65650988    -0.26800
C1586       C  0.46495066  0.24468718  0.65791862    -0.14900
C1587       C  0.45417001  0.27628384  0.67780424     0.35700
C1588       C  0.42178120  0.27772817  0.69287073    -0.26300
C1589       C  0.39990222  0.24819450  0.68910753    -0.15500
C1590       C  0.41176818  0.21571212  0.67284200     0.36800
N1591       N  0.39121688  0.18378916  0.67145164    -0.89800
H1592       H  0.44867616  0.19021791  0.64137154     0.17900
H1593       H  0.41298448  0.30277538  0.70561861     0.17900
N1594       N  0.47551075  0.30751591  0.68185808    -0.88800
H1595       H  0.40545471  0.16285678  0.68375992     0.35300
H1596       H  0.38684587  0.17606243  0.64486461     0.40400
H1597       H  0.46197045  0.32973481  0.67096187     0.40000
H1598       H  0.47985830  0.31318541  0.70887741     0.34900
C1599       C  0.29241754  0.86889392  0.93262094    -0.26800
C1600       C  0.26166060  0.86956542  0.95155598    -0.14900
C1601       C  0.23633192  0.84402923  0.93939868     0.35700
C1602       C  0.23983533  0.82380885  0.90733426    -0.26300
C1603       C  0.26874712  0.82665350  0.88675764    -0.15500
C1604       C  0.29598180  0.84865668  0.90050038     0.36800
N1605       N  0.32756005  0.85163968  0.88253255    -0.89800
H1606       H  0.31413425  0.88478292  0.94203339     0.17900
H1607       H  0.21900465  0.80652414  0.89780836     0.17900
N1608       N  0.20585062  0.83975202  0.95858938    -0.88800
H1609       H  0.32948506  0.87867189  0.87503881     0.35300
H1610       H  0.32754287  0.83559804  0.85935963     0.40400
H1611       H  0.20471164  0.81250347  0.96562296     0.40000
H1612       H  0.18448622  0.84552308  0.94176529     0.34900
C1613       C  0.30638833  0.92469334  0.02402041    -0.26800
C1614       C  0.28691990  0.92321292  0.99138495    -0.14900
C1615       C  0.29481797  0.94987618  0.96625734     0.35700
C1616       C  0.32182117  0.97453012  0.97328282    -0.26300
C1617       C  0.34191633  0.97405839  0.00499134    -0.15500
C1618       C  0.33384630  0.94866375  0.03036728     0.36800
N1619       N  0.35487547  0.94559467  0.06221121    -0.89800
H1620       H  0.30057265  0.90787338  0.04572896     0.17900
H1621       H  0.32861065  0.99262767  0.95264613     0.17900
N1622       N  0.27578267  0.95178662  0.93304075    -0.88800
H1623       H  0.36518176  0.91910004  0.06304789     0.35300
H1624       H  0.33904131  0.94938202  0.08368560     0.40400
H1625       H  0.29301010  0.94829025  0.91272841     0.40000
H1626       H  0.26463242  0.97785168  0.93118560     0.34900
C1627       C  0.18248592  0.96980356  0.99799077    -0.26800
C1628       C  0.16130824  0.96407831  0.96778987    -0.14900
C1629       C  0.17307133  0.94139088  0.94013344     0.35700
C1630       C  0.20440537  0.92222572  0.94491961    -0.26300
C1631       C  0.22398137  0.92332422  0.97752063    -0.15500
C1632       C  0.21380251  0.95087310  0.00292551     0.36800
N1633       N  0.23345491  0.95974420  0.03480555    -0.89800
H1634       H  0.17386697  0.98814937  0.01886803     0.17900
H1635       H  0.21274549  0.90618041  0.92251342     0.17900
N1636       N  0.15373839  0.93660816  0.90709436    -0.88800
H1637       H  0.25565587  0.97313929  0.02856535     0.35300
H1638       H  0.23946658  0.93652367  0.04921266     0.40400
H1639       H  0.13154528  0.95309812  0.90600542     0.40000
H1640       H  0.14580268  0.90960363  0.90529661     0.34900
C1641       C  0.27776151  0.84767623  0.02787628    -0.26800
C1642       C  0.25026118  0.87123446  0.01705833    -0.14900
C1643       C  0.21943759  0.86857162  0.03631472     0.35700
C1644       C  0.21943842  0.84864873  0.06778459    -0.26300
C1645       C  0.24837797  0.82873894  0.08039989    -0.15500
C1646       C  0.27764981  0.82765063  0.05913591     0.36800
N1647       N  0.30852946  0.80793285  0.06918153    -0.89800
H1648       H  0.30088582  0.84669039  0.01289681     0.17900
H1649       H  0.19601101  0.84831228  0.08223913     0.17900
N1650       N  0.18732636  0.88439283  0.02393059    -0.88800
H1651       H  0.30326732  0.78020782  0.06960529     0.35300
H1652       H  0.31702239  0.81708460  0.09439450     0.40400
H1653       H  0.17824051  0.90183594  0.04389091     0.40000
H1654       H  0.16960385  0.86357135  0.01977200     0.34900
C1655       C  0.29209714  0.93396393  0.25135995    -0.26800
C1656       C  0.29492000  0.91116860  0.22151634    -0.14900
C1657       C  0.31954418  0.91805725  0.19669706     0.35700
C1658       C  0.34133768  0.94760790  0.20243945    -0.26300
C1659       C  0.33850970  0.97176458  0.23206683    -0.15500
C1660       C  0.31363965  0.96374564  0.25709880     0.36800
N1661       N  0.31033456  0.98560527  0.28872271    -0.89800
H1662       H  0.27438728  0.92736053  0.27146663     0.17900
H1663       H  0.36158234  0.95005519  0.18416553     0.17900
N1664       N  0.32334049  0.89393230  0.16644048    -0.88800
H1665       H  0.31481026  0.96885687  0.31043709     0.35300
H1666       H  0.28501934  0.99567492  0.28930783     0.40400
H1667       H  0.33267721  0.86883128  0.17550748     0.40000
H1668       H  0.34181441  0.90346314  0.14990061     0.34900
C1669       C  0.18801366  0.53391076  0.22873604    -0.26800
C1670       C  0.15224902  0.53747346  0.23499891    -0.14900
C1671       C  0.13996267  0.57160980  0.24815441     0.35700
C1672       C  0.16265993  0.59972919  0.25522608    -0.26300
C1673       C  0.19717198  0.59639900  0.24671052    -0.15500
C1674       C  0.21045719  0.56283824  0.23438180     0.36800
N1675       N  0.24567752  0.55766512  0.22495661    -0.89800
H1676       H  0.19889566  0.50971679  0.21656825     0.17900
H1677       H  0.15246242  0.62566347  0.26476231     0.17900
N1678       N  0.10413539  0.57811226  0.25387928    -0.88800
H1679       H  0.25673263  0.53764758  0.24126426     0.35300
H1680       H  0.25989365  0.58107942  0.23009426     0.40400
H1681       H  0.09550614  0.59975427  0.23818931     0.40000
H1682       H  0.10156133  0.58608822  0.28038640     0.34900
C1683       C  0.04612641  0.81243315  0.14318828    -0.26800
C1684       C  0.02423625  0.78305678  0.15039958    -0.14900
C1685       C  0.03706399  0.75877277  0.17666904     0.35700
C1686       C  0.07122164  0.76090475  0.19017581    -0.26300
C1687       C  0.09432985  0.78664432  0.17850051    -0.15500
C1688       C  0.08092364  0.81385748  0.15596473     0.36800
N1689       N  0.10266565  0.84230095  0.14521328    -0.89800
H1690       H  0.03688963  0.83433448  0.12668273     0.17900
H1691       H  0.08014574  0.74061869  0.20892318     0.17900
N1692       N  0.01643724  0.72979629  0.18790548    -0.88800
H1693       H  0.08863080  0.86092953  0.12958360     0.35300
H1694       H  0.12112291  0.83035403  0.12905754     0.40400
H1695       H  0.01445109  0.73241306  0.21532089     0.40000
H1696       H  0.02914782  0.70505753  0.18240642     0.34900
C1697       C  0.96179865  0.69211545  0.06749086    -0.26800
C1698       C  0.99181475  0.67027220  0.06777290    -0.14900
C1699       C  0.02103369  0.68297365  0.08752440     0.35700
C1700       C  0.01940309  0.71663505  0.10616557    -0.26300
C1701       C  0.98901735  0.73893081  0.10740226    -0.15500
C1702       C  0.96021330  0.72617267  0.08567098     0.36800
N1703       N  0.92927990  0.74748773  0.07968777    -0.89800
H1704       H  0.93948187  0.68324922  0.05164904     0.17900
H1705       H  0.04333296  0.72538779  0.11863669     0.17900
N1706       N  0.05311187  0.66266268  0.08940393    -0.88800
H1707       H  0.93479701  0.77061892  0.06579459     0.35300
H1708       H  0.91830622  0.75502265  0.10344880     0.40400
H1709       H  0.05151203  0.63775637  0.07563436     0.40000
H1710       H  0.05843640  0.65645394  0.11593112     0.34900
C1711       C  0.95412579  0.83304811  0.10279407    -0.26800
C1712       C  0.98150066  0.80690277  0.10138084    -0.14900
C1713       C  0.00357680  0.80963195  0.07248111     0.35700
C1714       C  0.00151931  0.83997380  0.05075662    -0.26300
C1715       C  0.97795078  0.86874644  0.05624211    -0.15500
C1716       C  0.95274557  0.86412471  0.08157456     0.36800
N1717       N  0.92611624  0.89086955  0.08737255    -0.89800
H1718       H  0.93378512  0.83039195  0.12089960     0.17900
H1719       H  0.01993369  0.84165518  0.03021315     0.17900
N1720       N  0.02973993  0.78256599  0.06601196    -0.88800
H1721       H  0.91142107  0.89387781  0.06379025     0.35300
H1722       H  0.93746844  0.91566276  0.09454056     0.40400
H1723       H  0.05362928  0.79512837  0.06713212     0.40000
H1724       H  0.02534846  0.77178805  0.04039411     0.34900
C1725       C  0.23492191  0.67163778  0.51687773    -0.26800
C1726       C  0.23821370  0.63294845  0.51739617    -0.14900
C1727       C  0.23873053  0.61724687  0.55157306     0.35700
C1728       C  0.23334637  0.63875413  0.58199154    -0.26300
C1729       C  0.22916786  0.67682083  0.58120227    -0.15500
C1730       C  0.23021530  0.69342321  0.54806123     0.36800
N1731       N  0.22767827  0.73237857  0.54612989    -0.89800
H1732       H  0.23733402  0.68576710  0.49259427     0.17900
H1733       H  0.23308522  0.62502369  0.60698402     0.17900
N1734       N  0.24347781  0.57872656  0.55561455    -0.88800
H1735       H  0.22822284  0.74045432  0.51987682     0.35300
H1736       H  0.24956188  0.74303726  0.55929293     0.40400
H1737       H  0.26526896  0.57430732  0.57224964     0.40000
H1738       H  0.22223161  0.56881844  0.56804726     0.34900
C1739       C  0.33732834  0.58354723  0.51145266    -0.26800
C1740       C  0.33989181  0.54551002  0.50709456    -0.14900
C1741       C  0.30974276  0.52655728  0.49690022     0.35700
C1742       C  0.27848200  0.54605039  0.49014077    -0.26300
C1743       C  0.27660125  0.58482349  0.49132206    -0.15500
C1744       C  0.30711415  0.60314043  0.50271693     0.36800
N1745       N  0.30808901  0.64212888  0.50403070    -0.89800
H1746       H  0.35996999  0.59886739  0.51958830     0.17900
H1747       H  0.25601157  0.53025312  0.48334224     0.17900
N1748       N  0.31029124  0.48781861  0.49185429    -0.88800
H1749       H  0.31519423  0.65049037  0.52991103     0.35300
H1750       H  0.32707881  0.65034902  0.48741723     0.40400
H1751       H  0.31870182  0.47613182  0.51568374     0.40000
H1752       H  0.32798629  0.48087869  0.47266424     0.34900
C1753       C  0.18396327  0.58291440  0.50181009    -0.26800
C1754       C  0.21014971  0.58240869  0.47702841    -0.14900
C1755       C  0.20459394  0.55885452  0.44663915     0.35700
C1756       C  0.17421160  0.53795484  0.44224933    -0.26300
C1757       C  0.14963828  0.53838902  0.46837530    -0.15500
C1758       C  0.15638416  0.55938896  0.49939579     0.36800
N1759       N  0.13412062  0.55804760  0.52856626    -0.89800
H1760       H  0.18336059  0.60188901  0.52381381     0.17900
H1761       H  0.16936559  0.52251048  0.41786265     0.17900
N1762       N  0.22905882  0.55688379  0.41947767    -0.88800
H1763       H  0.12536993  0.58450195  0.53445544     0.35300
H1764       H  0.14884261  0.54918063  0.55060661     0.40400
H1765       H  0.21655817  0.56480767  0.39579007     0.40000
H1766       H  0.23717392  0.52973597  0.41631705     0.34900
C1767       C  0.21726519  0.65300821  0.43711349    -0.26800
C1768       C  0.24542386  0.63017187  0.44788797    -0.14900
C1769       C  0.27300526  0.62725714  0.42383571     0.35700
C1770       C  0.27314221  0.64919518  0.39380337    -0.26300
C1771       C  0.24580034  0.67298001  0.38444178    -0.15500
C1772       C  0.21718134  0.67436922  0.40636912     0.36800
N1773       N  0.18754350  0.69666104  0.39699904    -0.89800
H1774       H  0.19488066  0.65427095  0.45317150     0.17900
H1775       H  0.29485881  0.64655872  0.37686420     0.17900
N1776       N  0.30007058  0.60041510  0.42746110    -0.88800
H1777       H  0.16899691  0.69522573  0.41605633     0.35300
H1778       H  0.17643826  0.68575671  0.37348542     0.40400
H1779       H  0.32363667  0.61364776  0.42854796     0.40000
H1780       H  0.29923697  0.58333688  0.40490439     0.34900
C1781       C  0.56080612  0.49828528  0.21372353    -0.26800
C1782       C  0.59544417  0.50941239  0.21632793    -0.14900
C1783       C  0.61206936  0.51538141  0.18418135     0.35700
C1784       C  0.59384178  0.51321903  0.15192906    -0.26300
C1785       C  0.55926299  0.50433022  0.14993699    -0.15500
C1786       C  0.54261370  0.49570961  0.18079990     0.36800
N1787       N  0.50778264  0.48331876  0.17844035    -0.89800
H1788       H  0.54804477  0.48997476  0.23682913     0.17900
H1789       H  0.60691789  0.51936144  0.12812418     0.17900
N1790       N  0.64768376  0.52437603  0.18408358    -0.88800
H1791       H  0.49930405  0.47790581  0.20357414     0.35300
H1792       H  0.50772774  0.45853431  0.16420019     0.40400
H1793       H  0.64970303  0.54949935  0.17207233     0.40000
H1794       H  0.66031732  0.50470723  0.16862241     0.34900
C1795       C  0.56611388  0.52904923  0.29031365    -0.26800
C1796       C  0.59623746  0.50740054  0.28603278    -0.14900
C1797       C  0.60717386  0.48441637  0.31479391     0.35700
C1798       C  0.58642798  0.48091866  0.34330869    -0.26300
C1799       C  0.55591644  0.50066543  0.34579801    -0.15500
C1800       C  0.54523816  0.52495268  0.31929612     0.36800
N1801       N  0.51322288  0.54490535  0.32170963    -0.89800
H1802       H  0.55823352  0.54837477  0.27025720     0.17900
H1803       H  0.59506333  0.46337989  0.36469761     0.17900
N1804       N  0.64002250  0.46586604  0.31701553    -0.88800
H1805       H  0.50997422  0.56308073  0.30096387     0.35300
H1806       H  0.51431049  0.56050868  0.34510258     0.40400
H1807       H  0.63585013  0.43801385  0.31923205     0.40000
H1808       H  0.65330387  0.47453813  0.34025376     0.34900
C1809       C  0.62445466  0.44455573  0.24532954    -0.26800
C1810       C  0.64128552  0.47848569  0.24764660    -0.14900
C1811       C  0.67768522  0.47811332  0.24553240     0.35700
C1812       C  0.69570874  0.44470473  0.24594398    -0.26300
C1813       C  0.67839547  0.41180529  0.24734090    -0.15500
C1814       C  0.64231311  0.41175706  0.24590791     0.36800
N1815       N  0.62291497  0.37895454  0.24466865    -0.89800
H1816       H  0.59667350  0.44348717  0.24554691     0.17900
H1817       H  0.72352040  0.44446623  0.24493228     0.17900
N1818       N  0.69663315  0.51045411  0.24095481    -0.88800
H1819       H  0.62765301  0.36515038  0.26822814     0.35300
H1820       H  0.63064630  0.36253101  0.22335391     0.40400
H1821       H  0.70872268  0.50782739  0.21686251     0.40000
H1822       H  0.71626793  0.51171129  0.26067699     0.34900
C1823       C  0.78239683  0.36716744  0.43728534    -0.26800
C1824       C  0.75408578  0.36605611  0.45940301    -0.14900
C1825       C  0.72711798  0.34228076  0.44785404     0.35700
C1826       C  0.72597424  0.32672910  0.41312619    -0.26300
C1827       C  0.75227906  0.33224616  0.38967659    -0.15500
C1828       C  0.78148750  0.35174769  0.40275829     0.36800
N1829       N  0.81013744  0.35669845  0.38070132    -0.89800
H1830       H  0.80562276  0.38067369  0.44637354     0.17900
H1831       H  0.70434071  0.31013809  0.40453948     0.17900
N1832       N  0.69970293  0.33547424  0.47066734    -0.88800
H1833       H  0.82988020  0.37073990  0.39442052     0.35300
H1834       H  0.80154525  0.37320054  0.35988133     0.40400
H1835       H  0.69902701  0.30741181  0.47431405     0.40000
H1836       H  0.67649953  0.34347138  0.45785748     0.34900
C1837       C  0.69830263  0.41833900  0.45709798    -0.26800
C1838       C  0.71704299  0.41616697  0.49032738    -0.14900
C1839       C  0.70378575  0.43933202  0.51817042     0.35700
C1840       C  0.67054923  0.45491984  0.51439452    -0.26300
C1841       C  0.65051261  0.45081671  0.48315372    -0.15500
C1842       C  0.66514366  0.43428236  0.45357997     0.36800
N1843       N  0.64586525  0.43285414  0.42028111    -0.89800
H1844       H  0.70904521  0.40743102  0.43316359     0.17900
H1845       H  0.65984807  0.46970708  0.53667553     0.17900
N1846       N  0.72226405  0.44757393  0.55096009    -0.88800
H1847       H  0.65997059  0.41916008  0.40095934     0.35300
H1848       H  0.64218800  0.45961417  0.41196070     0.40400
H1849       H  0.74593389  0.43454753  0.55228109     0.40000
H1850       H  0.70837298  0.43777045  0.57161889     0.34900
C1851       C  0.78482072  0.44284958  0.46785604    -0.26800
C1852       C  0.78156159  0.41949074  0.49673335    -0.14900
C1853       C  0.80674904  0.42345860  0.52547817     0.35700
C1854       C  0.83627410  0.44371660  0.52111192    -0.26300
C1855       C  0.84142731  0.46146677  0.48980434    -0.15500
C1856       C  0.81480529  0.46242095  0.46335297     0.36800
N1857       N  0.81780785  0.48157109  0.43102827    -0.89800
H1858       H  0.76532509  0.44297125  0.44652857     0.17900
H1859       H  0.85623044  0.44422361  0.54206796     0.17900
N1860       N  0.80294408  0.40847979  0.55964539    -0.88800
H1861       H  0.81867601  0.46215362  0.41036393     0.35300
H1862       H  0.84066669  0.49593344  0.43109232     0.40400
H1863       H  0.80266669  0.42992902  0.57836772     0.40000
H1864       H  0.82468836  0.39226181  0.56584260     0.34900
C1865       C  0.37145777  0.57498816  0.74856153    -0.26800
C1866       C  0.35036057  0.54382688  0.74783984    -0.14900
C1867       C  0.31614232  0.54890995  0.75903440     0.35700
C1868       C  0.30514005  0.58330524  0.77141170    -0.26300
C1869       C  0.32667288  0.61344064  0.77228694    -0.15500
C1870       C  0.36062017  0.60890955  0.76152929     0.36800
N1871       N  0.38414323  0.63859418  0.76126624    -0.89800
H1872       H  0.39754159  0.57262210  0.73979088     0.17900
H1873       H  0.27836522  0.58723942  0.77773797     0.17900
N1874       N  0.29192916  0.52013253  0.75774010    -0.88800
H1875       H  0.40570102  0.63158317  0.77735737     0.35300
H1876       H  0.37369069  0.66217095  0.77286014     0.40400
H1877       H  0.27131232  0.52766694  0.74060439     0.40000
H1878       H  0.28225944  0.51756203  0.78286215     0.34900
C1879       C  0.32130908  0.46926080  0.71255589    -0.26800
C1880       C  0.34804109  0.47133887  0.73911062    -0.14900
C1881       C  0.35822743  0.43812389  0.75568954     0.35700
C1882       C  0.33971959  0.40655638  0.74842412    -0.26300
C1883       C  0.31174534  0.40531165  0.72369223    -0.15500
C1884       C  0.30262067  0.43746722  0.70542115     0.36800
N1885       N  0.27481021  0.43902303  0.67938400    -0.89800
H1886       H  0.31445897  0.49302236  0.69730515     0.17900
H1887       H  0.34842223  0.38230191  0.76213569     0.17900
N1888       N  0.38849241  0.43492215  0.77853190    -0.88800
H1889       H  0.25206046  0.43250642  0.69125541     0.35300
H1890       H  0.27974275  0.42017223  0.65897433     0.40400
H1891       H  0.40504227  0.41529619  0.76759678     0.40000
H1892       H  0.38130178  0.42560941  0.80296615     0.34900
C1893       C  0.42790374  0.51848735  0.77631326    -0.26800
C1894       C  0.39313394  0.50777957  0.77682570    -0.14900
C1895       C  0.37768893  0.50746078  0.81022702     0.35700
C1896       C  0.39597000  0.51900199  0.84063122    -0.26300
C1897       C  0.43036565  0.52825773  0.83984539    -0.15500
C1898       C  0.44658062  0.52819057  0.80731826     0.36800
N1899       N  0.48105882  0.54043291  0.80457977    -0.89800
H1900       H  0.44040406  0.52214468  0.75179904     0.17900
H1901       H  0.38317781  0.52035892  0.86538265     0.17900
N1902       N  0.34288287  0.49645348  0.81332038    -0.88800
H1903       H  0.49807883  0.52281060  0.81812219     0.35300
H1904       H  0.48278201  0.56646649  0.81627382     0.40400
H1905       H  0.34299019  0.47380497  0.82942948     0.40000
H1906       H  0.32945058  0.51751769  0.82616770     0.34900
C1907       C  0.41615707  0.47851653  0.70458129    -0.26800
C1908       C  0.38968818  0.50525882  0.70800595    -0.14900
C1909       C  0.37990504  0.52570142  0.67749913     0.35700
C1910       C  0.39852764  0.52142711  0.64690365    -0.26300
C1911       C  0.42586865  0.49641252  0.64502928    -0.15500
C1912       C  0.43484063  0.47444385  0.67401562     0.36800
N1913       N  0.46199687  0.44725240  0.67321194    -0.89800
H1914       H  0.42297813  0.46089742  0.72631743     0.17900
H1915       H  0.39111318  0.53747661  0.62403155     0.17900
N1916       N  0.35029320  0.54959518  0.67631757    -0.88800
H1917       H  0.48104335  0.45498118  0.69212183     0.35300
H1918       H  0.47359419  0.44587838  0.64885358     0.40400
H1919       H  0.33348742  0.54074657  0.65568332     0.40000
H1920       H  0.35829287  0.57566662  0.67049311     0.34900
C1921       C  0.75853121  0.12342567  0.05337302    -0.26800
C1922       C  0.75268829  0.14102425  0.02050806    -0.14900
C1923       C  0.75536838  0.17979271  0.02177565     0.35700
C1924       C  0.75737496  0.19882409  0.05469124    -0.26300
C1925       C  0.75983355  0.18045907  0.08667686    -0.15500
C1926       C  0.76132554  0.14217699  0.08590990     0.36800
N1927       N  0.76538421  0.12114348  0.11746653    -0.89800
H1928       H  0.75966111  0.09403704  0.05391944     0.17900
H1929       H  0.75794819  0.22831020  0.05520116     0.17900
N1930       N  0.75922026  0.20018152  0.99058069    -0.88800
H1931       H  0.74289530  0.10647169  0.11971477     0.35300
H1932       H  0.76822301  0.13742024  0.14034874     0.40400
H1933       H  0.78297208  0.21301819  0.99282788     0.40000
H1934       H  0.73990773  0.22040696  0.98946551     0.34900
C1935       C  0.69509143  0.09288646  0.01584735    -0.26800
C1936       C  0.71668603  0.09086654  0.98672984    -0.14900
C1937       C  0.70489906  0.06840853  0.95721980     0.35700
C1938       C  0.67349248  0.04967771  0.95799685    -0.26300
C1939       C  0.65345462  0.05193199  0.98784360    -0.15500
C1940       C  0.66573687  0.07224306  0.01753914     0.36800
N1941       N  0.64753062  0.07314266  0.04970229    -0.89800
H1942       H  0.69924320  0.11132604  0.03798795     0.17900
H1943       H  0.66413072  0.03465566  0.93461636     0.17900
N1944       N  0.72406258  0.06509048  0.92585074    -0.88800
H1945       H  0.64091406  0.10024554  0.05577835     0.35300
H1946       H  0.66429175  0.06374276  0.06998760     0.40400
H1947       H  0.70848793  0.07463312  0.90468649     0.40000
H1948       H  0.72952264  0.03752380  0.92078158     0.34900
C1949       C  0.82627133  0.04344390  0.99473142    -0.26800
C1950       C  0.85397298  0.06665796  0.99121861    -0.14900
C1951       C  0.84751659  0.10448145  0.99013964     0.35700
C1952       C  0.81373522  0.11759297  0.98831396    -0.26300
C1953       C  0.78496591  0.09462156  0.98857240    -0.15500
C1954       C  0.79207214  0.05673838  0.99435707     0.36800
N1955       N  0.76647731  0.03088054  0.00148333    -0.89800
H1956       H  0.83114998  0.01447878  0.99738365     0.17900
H1957       H  0.80966223  0.14662231  0.98565367     0.17900
N1958       N  0.87530837  0.12975964  0.99086723    -0.88800
H1959       H  0.75146855  0.02515444  0.97872069     0.35300
H1960       H  0.75165378  0.04023998  0.02229142     0.40400
H1961       H  0.88861166  0.12757771  0.01537002     0.40000
H1962       H  0.86606638  0.15664022  0.98949768     0.34900
C1963       C  0.14924481  0.95422017  0.68435879    -0.26800
C1964       C  0.13306583  0.95877090  0.71716306    -0.14900
C1965       C  0.12869682  0.92667154  0.73693454     0.35700
C1966       C  0.14324938  0.89375488  0.72554510    -0.26300
C1967       C  0.16368698  0.89136257  0.69629907    -0.15500
C1968       C  0.16591055  0.92149457  0.67452561     0.36800
N1969       N  0.18553266  0.92026517  0.64321123    -0.89800
H1970       H  0.15065914  0.97717476  0.66712384     0.17900
H1971       H  0.14006194  0.86988653  0.74114137     0.17900
N1972       N  0.10873078  0.92606619  0.76785576    -0.88800
H1973       H  0.16840006  0.92499493  0.62166592     0.35300
H1974       H  0.19635799  0.89436794  0.63888006     0.40400
H1975       H  0.12459840  0.91671021  0.78888634     0.40000
H1976       H  0.08910404  0.90728266  0.76346569     0.34900
C1977       C  0.12535680  0.06425015  0.73353370    -0.26800
C1978       C  0.14083790  0.02958044  0.72662215    -0.14900
C1979       C  0.17655391  0.02862024  0.72022397     0.35700
C1980       C  0.19280320  0.06109755  0.71272284    -0.26300
C1981       C  0.17475700  0.09453252  0.71357447    -0.15500
C1982       C  0.14150303  0.09622283  0.72647066     0.36800
N1983       N  0.12364890  0.13005071  0.73333729    -0.89800
H1984       H  0.09890330  0.06660857  0.74115660     0.17900
H1985       H  0.21983572  0.06029441  0.70685918     0.17900
N1986       N  0.19708965  0.99600795  0.72359227    -0.88800
H1987       H  0.12004016  0.14390548  0.70967073     0.35300
H1988       H  0.13869487  0.14574819  0.75123893     0.40400
H1989       H  0.21581916  0.00034348  0.74385377     0.40000
H1990       H  0.20984439  0.99147016  0.70007212     0.34900
C1991       C  0.08980429  0.02979844  0.67127299    -0.26800
C1992       C  0.08823151  0.00128163  0.69558773    -0.14900
C1993       C  0.06136257  0.97569077  0.68983570     0.35700
C1994       C  0.03927201  0.97788030  0.65992170    -0.26300
C1995       C  0.04280159  0.00554023  0.63606852    -0.15500
C1996       C  0.06567156  0.03376880  0.64367608     0.36800
N1997       N  0.06637054  0.06461641  0.62101259    -0.89800
H1998       H  0.11070264  0.04847503  0.67159426     0.17900
H1999       H  0.02128114  0.95622152  0.65393012     0.17900
N2000       N  0.05710904  0.94657401  0.71348206    -0.88800
H2001       H  0.08545561  0.08273813  0.62980257     0.35300
H2002       H  0.04285699  0.07868726  0.62296886     0.40400
H2003       H  0.05933452  0.92195984  0.69916763     0.40000
H2004       H  0.03221851  0.94856418  0.72280176     0.34900
C2005       C  0.06634358  0.00989912  0.76673761    -0.26800
C2006       C  0.10111965  0.99933473  0.76270099    -0.14900
C2007       C  0.12312887  0.99695273  0.79364564     0.35700
C2008       C  0.10960399  0.00193851  0.82695406    -0.26300
C2009       C  0.07462373  0.00959969  0.83006675    -0.15500
C2010       C  0.05293218  0.01476827  0.79994503     0.36800
N2011       N  0.01734079  0.02533821  0.80330167    -0.89800
H2012       H  0.04933843  0.01600895  0.74432663     0.17900
H2013       H  0.12627904  0.99864099  0.85042756     0.17900
N2014       N  0.15916474  0.98890202  0.79123933    -0.88800
H2015       H  0.00472812  0.02775119  0.77846485     0.35300
H2016       H  0.01662530  0.05118637  0.81545004     0.40400
H2017       H  0.16520050  0.96547582  0.80551795     0.40000
H2018       H  0.17275331  0.01044214  0.80332350     0.34900
C2019       C  0.43182834  0.72141411  0.35593891    -0.26800
C2020       C  0.46044576  0.72331553  0.33391827    -0.14900
C2021       C  0.45318320  0.71189204  0.29771398     0.35700
C2022       C  0.41893581  0.71169540  0.28408504    -0.26300
C2023       C  0.39136974  0.71670786  0.30605764    -0.15500
C2024       C  0.39770142  0.71932882  0.34258674     0.36800
N2025       N  0.36947131  0.72146198  0.36590184    -0.89800
H2026       H  0.43570410  0.72147258  0.38412291     0.17900
H2027       H  0.41379007  0.70625104  0.25606307     0.17900
N2028       N  0.47821367  0.69459415  0.27591600    -0.88800
H2029       H  0.37846111  0.72467047  0.39223215     0.35300
H2030       H  0.35697374  0.69654469  0.36393079     0.40400
H2031       H  0.47680062  0.70680536  0.25120155     0.40000
H2032       H  0.47082347  0.66766126  0.27108130     0.34900
C2033       C  0.50867071  0.70640175  0.41627039    -0.26800
C2034       C  0.50540447  0.70324828  0.37869291    -0.14900
C2035       C  0.51391381  0.66812231  0.36411446     0.35700
C2036       C  0.51991801  0.63815500  0.38588909    -0.26300
C2037       C  0.51747750  0.64125939  0.42238051    -0.15500
C2038       C  0.51320340  0.67609222  0.43801354     0.36800
N2039       N  0.51419355  0.68194815  0.47580908    -0.89800
H2040       H  0.51104499  0.73230682  0.42977118     0.17900
H2041       H  0.52522435  0.61180903  0.37389389     0.17900
N2042       N  0.51772662  0.66244490  0.32703669    -0.88800
H2043       H  0.53496841  0.69872662  0.48249698     0.35300
H2044       H  0.51921811  0.65776273  0.48913287     0.40400
H2045       H  0.50181712  0.64105963  0.31856225     0.40000
H2046       H  0.54313724  0.65398396  0.32310459     0.34900
C2047       C  0.47127677  0.77843368  0.40559103    -0.26800
C2048       C  0.48625695  0.77481799  0.37176227    -0.14900
C2049       C  0.48795686  0.80888298  0.35392472     0.35700
C2050       C  0.48384962  0.84236587  0.37218921    -0.26300
C2051       C  0.47467343  0.84443769  0.40733925    -0.15500
C2052       C  0.46651621  0.81205112  0.42369628     0.36800
N2053       N  0.45383178  0.81194765  0.45885533    -0.89800
H2054       H  0.46264947  0.75545218  0.41940855     0.17900
H2055       H  0.48808518  0.86734943  0.35852824     0.17900
N2056       N  0.49094259  0.81151883  0.31666847    -0.88800
H2057       H  0.42911889  0.80124377  0.45693188     0.35300
H2058       H  0.45109832  0.83828650  0.46950834     0.40400
H2059       H  0.47422771  0.79357469  0.30319307     0.40000
H2060       H  0.51663250  0.80884979  0.31021037     0.34900
C2061       C  0.81133879  0.62678882  0.00901899    -0.26800
C2062       C  0.78332405  0.60251416  0.00511075    -0.14900
C2063       C  0.79204852  0.56480211  0.99895025     0.35700
C2064       C  0.82664011  0.55318018  0.00103713    -0.26300
C2065       C  0.85346169  0.57724582  0.00889572    -0.15500
C2066       C  0.84582664  0.61458077  0.01227942     0.36800
N2067       N  0.87309718  0.64004512  0.01867273    -0.89800
H2068       H  0.80606033  0.65567120  0.01179311     0.17900
H2069       H  0.83280416  0.52472869  0.99552209     0.17900
N2070       N  0.76790169  0.53753933  0.98763883    -0.88800
H2071       H  0.86312098  0.66659891  0.02109033     0.35300
H2072       H  0.88818562  0.63934878  0.99646841     0.40400
H2073       H  0.75204643  0.54619579  0.96645198     0.40000
H2074       H  0.75396092  0.52920613  0.00863730     0.34900
C2075       C  0.67708027  0.55262703  0.03544307    -0.26800
C2076       C  0.65229396  0.55507135  0.00785812    -0.14900
C2077       C  0.66057068  0.57287219  0.97703105     0.35700
C2078       C  0.69084649  0.59249938  0.97616175    -0.26300
C2079       C  0.71584873  0.59278526  0.00448005    -0.15500
C2080       C  0.70866775  0.57061913  0.03399491     0.36800
N2081       N  0.73271010  0.56707551  0.06344457    -0.89800
H2082       H  0.67124726  0.53845524  0.05914286     0.17900
H2083       H  0.69281468  0.60881514  0.95324680     0.17900
N2084       N  0.63744545  0.57207390  0.94646491    -0.88800
H2085       H  0.73850725  0.53944816  0.06682172     0.35300
H2086       H  0.72067206  0.57665374  0.08615967     0.40400
H2087       H  0.65053106  0.55992467  0.92552680     0.40000
H2088       H  0.63145409  0.59891910  0.93967457     0.34900
C2089       C  0.70954541  0.66224875  0.04531923    -0.26800
C2090       C  0.74094941  0.64210750  0.04156472    -0.14900
C2091       C  0.76218665  0.63761971  0.07324596     0.35700
C2092       C  0.75316670  0.65493745  0.10462904    -0.26300
C2093       C  0.72421621  0.67772669  0.10688191    -0.15500
C2094       C  0.70161408  0.68110436  0.07715479     0.36800
N2095       N  0.67132193  0.70397784  0.07905747    -0.89800
H2096       H  0.69160120  0.66417433  0.02268449     0.17900
H2097       H  0.76998671  0.65106688  0.12794117     0.17900
N2098       N  0.79171760  0.61360713  0.07555879    -0.88800
H2099       H  0.65751296  0.70364264  0.05470856     0.35300
H2100       H  0.67929847  0.73072564  0.08370183     0.40400
H2101       H  0.78807085  0.59432592  0.09480432     0.40000
H2102       H  0.81304320  0.62891785  0.08401797     0.34900
C2103       C  0.82744745  0.94215070  0.26692340    -0.26800
C2104       C  0.82802153  0.91290531  0.24272712    -0.14900
C2105       C  0.85102666  0.91228876  0.21525060     0.35700
C2106       C  0.87238293  0.94193151  0.21153006    -0.26300
C2107       C  0.86986578  0.97369748  0.23340601    -0.15500
C2108       C  0.84801753  0.97242324  0.26265559     0.36800
N2109       N  0.84594571  0.00226328  0.28766704    -0.89800
H2110       H  0.81045888  0.94181950  0.28885836     0.17900
H2111       H  0.89115864  0.93943347  0.19143393     0.17900
N2112       N  0.85246504  0.88142446  0.19110373    -0.88800
H2113       H  0.85292481  0.99258151  0.31277045     0.35300
H2114       H  0.82035051  0.01152048  0.28797574     0.40400
H2115       H  0.85972460  0.85859257  0.20571366     0.40000
H2116       H  0.87140386  0.88465484  0.17273935     0.34900
C2117       C  0.59201713  0.74897234  0.33101526    -0.26800
C2118       C  0.59199700  0.74943762  0.29399566    -0.14900
C2119       C  0.56003726  0.74745878  0.27530044     0.35700
C2120       C  0.52947762  0.74430747  0.29422238    -0.26300
C2121       C  0.52925643  0.74127854  0.33168407    -0.15500
C2122       C  0.56214669  0.74594309  0.34970815     0.36800
N2123       N  0.56704820  0.74906997  0.38735751    -0.89800
H2124       H  0.61606911  0.75134398  0.34637863     0.17900
H2125       H  0.50587992  0.74952269  0.27956304     0.17900
N2126       N  0.55828492  0.75078444  0.23750977    -0.88800
H2127       H  0.56748789  0.72339064  0.39840337     0.35300
H2128       H  0.54922206  0.76726323  0.39819995     0.40400
H2129       H  0.56617417  0.77694597  0.23190265     0.40000
H2130       H  0.53287838  0.74867984  0.22757195     0.34900
C2131       C  0.67501649  0.59315089  0.28111245    -0.26800
C2132       C  0.66469987  0.61909346  0.25591522    -0.14900
C2133       C  0.63411909  0.61320367  0.23526137     0.35700
C2134       C  0.61848383  0.57944512  0.23613546    -0.26300
C2135       C  0.63278887  0.55041702  0.25628850    -0.15500
C2136       C  0.65833341  0.55981901  0.28258432     0.36800
N2137       N  0.66739552  0.53604328  0.31095682    -0.89800
H2138       H  0.69626905  0.59852916  0.29985840     0.17900
H2139       H  0.59478166  0.57617337  0.22050861     0.17900
N2140       N  0.61875183  0.64125902  0.21350641    -0.88800
H2141       H  0.69399640  0.53145080  0.31201393     0.35300
H2142       H  0.66124312  0.54951873  0.33459804     0.40400
H2143       H  0.60966481  0.66186876  0.23048203     0.40000
H2144       H  0.59726436  0.63172961  0.19877577     0.34900
C2145       C  0.94332548  0.74336944  0.16599693    -0.26800
C2146       C  0.95981735  0.77629708  0.15909212    -0.14900
C2147       C  0.95000876  0.80689455  0.18148986     0.35700
C2148       C  0.92050504  0.80528737  0.20231752    -0.26300
C2149       C  0.90103884  0.77366069  0.20359629    -0.15500
C2150       C  0.91447870  0.74183754  0.18676468     0.36800
N2151       N  0.89929751  0.70697787  0.18999221    -0.89800
H2152       H  0.95194983  0.71783039  0.15433962     0.17900
H2153       H  0.91218622  0.82956609  0.21659194     0.17900
N2154       N  0.96784133  0.84076862  0.18299939    -0.88800
H2155       H  0.87581108  0.70658481  0.17567366     0.35300
H2156       H  0.89542633  0.70256824  0.21669808     0.40400
H2157       H  0.98844883  0.84049195  0.16654892     0.40000
H2158       H  0.97812081  0.84448959  0.20881041     0.34900
C2159       C  0.79149617  0.95107236  0.51342800    -0.26800
C2160       C  0.79262596  0.91261462  0.51442396    -0.14900
C2161       C  0.82576617  0.89531905  0.51954634     0.35700
C2162       C  0.85542720  0.91564197  0.52059197    -0.26300
C2163       C  0.85405931  0.95275435  0.51454656    -0.15500
C2164       C  0.82182476  0.97116493  0.51199613     0.36800
N2165       N  0.81888801  0.00995026  0.50847379    -0.89800
H2166       H  0.76728536  0.96592603  0.51240141     0.17900
H2167       H  0.88012552  0.90144750  0.52289893     0.17900
N2168       N  0.82989346  0.85650374  0.52035783    -0.88800
H2169       H  0.80771338  0.01496178  0.48338765     0.35300
H2170       H  0.84298962  0.02197742  0.50979360     0.40400
H2171       H  0.84299434  0.84979489  0.54411302     0.40000
H2172       H  0.84507949  0.84783379  0.49948699     0.34900
C2173       C  0.69883991  0.90457240  0.53226249    -0.26800
C2174       C  0.72429393  0.91107601  0.50729832    -0.14900
C2175       C  0.71396937  0.93583647  0.48007705     0.35700
C2176       C  0.68092331  0.95343293  0.47948253    -0.26300
C2177       C  0.65699329  0.94732497  0.50543965    -0.15500
C2178       C  0.66652781  0.92240950  0.53190488     0.36800
N2179       N  0.64309395  0.91348177  0.55840638    -0.89800
H2180       H  0.70249260  0.88405536  0.55195148     0.17900
H2181       H  0.67355910  0.97111094  0.45784304     0.17900
N2182       N  0.73637104  0.94225415  0.45196344    -0.88800
H2183       H  0.62100215  0.90254513  0.54591949     0.35300
H2184       H  0.63608309  0.93747332  0.57196256     0.40400
H2185       H  0.74056506  0.97022015  0.45129405     0.40000
H2186       H  0.72375228  0.93439518  0.42809270     0.34900
C2187       C  0.73970636  0.83118935  0.42147371    -0.26800
C2188       C  0.76743242  0.83805410  0.39972267    -0.14900
C2189       C  0.79323079  0.86124353  0.41337665     0.35700
C2190       C  0.79066432  0.87684369  0.44741358    -0.26300
C2191       C  0.76332589  0.86931626  0.47023428    -0.15500
C2192       C  0.73703297  0.84693040  0.45552219     0.36800
N2193       N  0.70678014  0.84084750  0.47462649    -0.89800
H2194       H  0.71898085  0.81392746  0.41173742     0.17900
H2195       H  0.81019402  0.89634839  0.45452659     0.17900
N2196       N  0.82163500  0.87097027  0.39294174    -0.88800
H2197       H  0.70365499  0.81280797  0.47644301     0.35300
H2198       H  0.68560321  0.85121460  0.45984554     0.40400
H2199       H  0.81207516  0.88278569  0.36956500     0.40000
H2200       H  0.83576321  0.84734462  0.38667111     0.34900
C2201       C  0.93044711  0.52981438  0.67734864    -0.26800
C2202       C  0.90517439  0.50356701  0.68255826    -0.14900
C2203       C  0.89124792  0.48501719  0.65131323     0.35700
C2204       C  0.90528494  0.49014035  0.61863109    -0.26300
C2205       C  0.93176877  0.51417270  0.61507232    -0.15500
C2206       C  0.94465598  0.53439546  0.64436931     0.36800
N2207       N  0.97221873  0.55922910  0.64053355    -0.89800
H2208       H  0.93963750  0.54674036  0.69918521     0.17900
H2209       H  0.89526925  0.47494823  0.59558097     0.17900
N2210       N  0.86173866  0.46233040  0.65132110    -0.88800
H2211       H  0.97878772  0.57214696  0.66477249     0.35300
H2212       H  0.96319459  0.57959920  0.62350865     0.40400
H2213       H  0.86874643  0.43641254  0.64167310     0.40000
H2214       H  0.84268689  0.47298547  0.63391564     0.34900
C2215       C  0.89446268  0.49910549  0.78515842    -0.26800
C2216       C  0.91215640  0.49995828  0.75344850    -0.14900
C2217       C  0.94872535  0.49475524  0.75647823     0.35700
C2218       C  0.96590877  0.49475829  0.79038512    -0.26300
C2219       C  0.94748183  0.49718341  0.82147864    -0.15500
C2220       C  0.91117666  0.49650628  0.81815532     0.36800
N2221       N  0.89059362  0.49330563  0.84836818    -0.89800
H2222       H  0.86666714  0.50152478  0.78456648     0.17900
H2223       H  0.99375695  0.49308366  0.79228835     0.17900
N2224       N  0.96877939  0.48837029  0.72609469    -0.88800
H2225       H  0.87570510  0.47004615  0.84469140     0.35300
H2226       H  0.87391924  0.51596983  0.84963828     0.40400
H2227       H  0.98142766  0.46312599  0.72864475     0.40000
H2228       H  0.98757342  0.50828725  0.72615376     0.34900
C2229       C  0.83107135  0.47043927  0.73046175    -0.26800
C2230       C  0.86607018  0.46856661  0.72182495    -0.14900
C2231       C  0.88190843  0.43341853  0.71898024     0.35700
C2232       C  0.86274461  0.40219899  0.72278994    -0.26300
C2233       C  0.82774033  0.40436295  0.73011175    -0.15500
C2234       C  0.81184374  0.43914522  0.73398237     0.36800
N2235       N  0.77608777  0.44389391  0.74082639    -0.89800
H2236       H  0.81829804  0.49621915  0.73583587     0.17900
H2237       H  0.87569526  0.37591187  0.72014375     0.17900
N2238       N  0.91757728  0.42925194  0.71151336    -0.88800
H2239       H  0.77153663  0.43336966  0.76552585     0.35300
H2240       H  0.76160135  0.42992277  0.72110805     0.40400
H2241       H  0.91951918  0.41378861  0.68806447     0.40000
H2242       H  0.92989677  0.41468977  0.73198108     0.34900
C2243       C  0.56888266  0.24025459  0.71316274    -0.26800
C2244       C  0.59809552  0.23847458  0.69293213    -0.14900
C2245       C  0.59376223  0.23900871  0.65561057     0.35700
C2246       C  0.56153205  0.24472470  0.63978408    -0.26300
C2247       C  0.53151497  0.24603937  0.65910035    -0.15500
C2248       C  0.53559748  0.24278691  0.69680004     0.36800
N2249       N  0.50684271  0.23994108  0.71876934    -0.89800
H2250       H  0.57179315  0.23942381  0.74174916     0.17900
H2251       H  0.55973572  0.24620211  0.61116994     0.17900
N2252       N  0.62218350  0.23320180  0.63309725    -0.88800
H2253       H  0.50835568  0.26060964  0.73826223     0.35300
H2254       H  0.50887788  0.21499996  0.73144168     0.40400
H2255       H  0.62395492  0.25600095  0.61734742     0.40000
H2256       H  0.61703559  0.21063483  0.61644198     0.34900
C2257       C  0.72593113  0.36441139  0.54962889    -0.26800
C2258       C  0.75272750  0.36499185  0.52593997    -0.14900
C2259       C  0.78156817  0.34120688  0.53363221     0.35700
C2260       C  0.78551246  0.32392773  0.56679839    -0.26300
C2261       C  0.76074932  0.32866300  0.59249262    -0.15500
C2262       C  0.73033509  0.34898165  0.58316898     0.36800
N2263       N  0.70383316  0.35455630  0.60820705    -0.89800
H2264       H  0.70137200  0.37704417  0.54292779     0.17900
H2265       H  0.80798491  0.30675430  0.57234238     0.17900
N2266       N  0.80785403  0.33586330  0.50859289    -0.88800
H2267       H  0.68305206  0.36967927  0.59738224     0.35300
H2268       H  0.71420912  0.37020470  0.62939337     0.40400
H2269       H  0.80959430  0.30805071  0.50223884     0.40000
H2270       H  0.83136085  0.34357249  0.52064773     0.34900
C2271       C  0.92067285  0.22842305  0.80206539    -0.26800
C2272       C  0.91084094  0.25552942  0.77800876    -0.14900
C2273       C  0.93508980  0.28170545  0.77026543     0.35700
C2274       C  0.96798892  0.28068421  0.78779415    -0.26300
C2275       C  0.97809213  0.25363060  0.81268291    -0.15500
C2276       C  0.95266373  0.22788115  0.82036429     0.36800
N2277       N  0.95706071  0.20294172  0.84874175    -0.89800
H2278       H  0.90228638  0.20820722  0.80870929     0.17900
H2279       H  0.98619053  0.30138313  0.78205734     0.17900
N2280       N  0.92592549  0.31011948  0.74600578    -0.88800
H2281       H  0.95358474  0.17654475  0.83838450     0.35300
H2282       H  0.93790670  0.20838919  0.86680476     0.40400
H2283       H  0.92242272  0.29797642  0.72084110     0.40000
H2284       H  0.94618989  0.32814091  0.74442130     0.34900
C2285       C  0.71650133  0.16017352  0.94438373    -0.26800
C2286       C  0.74530009  0.13632312  0.95019115    -0.14900
C2287       C  0.76681137  0.13016551  0.92070712     0.35700
C2288       C  0.76291827  0.15177764  0.89099990    -0.26300
C2289       C  0.73650162  0.17783718  0.88698110    -0.15500
C2290       C  0.71204333  0.18124198  0.91362744     0.36800
N2291       N  0.68344212  0.20658075  0.91146911    -0.89800
H2292       H  0.69803983  0.16370814  0.96488358     0.17900
H2293       H  0.78042814  0.14689328  0.86977701     0.17900
N2294       N  0.79091288  0.10016667  0.91861726    -0.88800
H2295       H  0.66096912  0.19145981  0.90908653     0.35300
H2296       H  0.68397882  0.22250996  0.88912432     0.40400
H2297       H  0.78388181  0.08368050  0.89664483     0.40000
H2298       H  0.81521241  0.11044086  0.91438885     0.34900
C2299       C  0.55871565  0.02780985  0.81864407    -0.26800
C2300       C  0.56766622  0.00559254  0.84749716    -0.14900
C2301       C  0.59649115  0.98192953  0.84491112     0.35700
C2302       C  0.61462387  0.98037063  0.81417914    -0.26300
C2303       C  0.60396361  0.99927633  0.78322022    -0.15500
C2304       C  0.57700699  0.02564103  0.78722162     0.36800
N2305       N  0.56874929  0.05127616  0.76018676    -0.89800
H2306       H  0.53782982  0.04763674  0.82059996     0.17900
H2307       H  0.63799205  0.96406349  0.81583567     0.17900
N2308       N  0.60826626  0.95932000  0.87353790    -0.88800
H2309       H  0.57269674  0.07741193  0.77097897     0.35300
H2310       H  0.54260559  0.04927611  0.75291933     0.40400
H2311       H  0.63356490  0.96616700  0.88096406     0.40000
H2312       H  0.60836349  0.93222192  0.86437826     0.34900
C2313       C  0.56903172  0.98711987  0.71021901    -0.26800
C2314       C  0.60527695  0.98767930  0.71327567    -0.14900
C2315       C  0.62335825  0.98331313  0.68139165     0.35700
C2316       C  0.60549948  0.98391182  0.64829895    -0.26300
C2317       C  0.56956374  0.98734440  0.64556428    -0.15500
C2318       C  0.55119886  0.98752533  0.67715709     0.36800
N2319       N  0.51438833  0.98944250  0.67681032    -0.89800
H2320       H  0.55398397  0.98667556  0.73345964     0.17900
H2321       H  0.62003899  0.98224894  0.62450867     0.17900
N2322       N  0.66018587  0.98066258  0.68241146    -0.88800
H2323       H  0.50469359  0.96585889  0.66442009     0.35300
H2324       H  0.50584575  0.01218516  0.66262003     0.40400
H2325       H  0.66945121  0.00212839  0.66821229     0.40000
H2326       H  0.66727922  0.95623401  0.66965076     0.34900
C2327       C  0.65611117  0.09198078  0.72437783    -0.26800
C2328       C  0.68062239  0.09915348  0.75126053    -0.14900
C2329       C  0.68692026  0.07361028  0.77804476     0.35700
C2330       C  0.66852963  0.04105046  0.77662686    -0.26300
C2331       C  0.64522674  0.03169764  0.74802828    -0.15500
C2332       C  0.63772930  0.05971821  0.72273779     0.36800
N2333       N  0.61001708  0.05774511  0.69657173    -0.89800
H2334       H  0.65033073  0.11237661  0.70462520     0.17900
H2335       H  0.67293851  0.02249345  0.79819060     0.17900
N2336       N  0.71138584  0.07975047  0.80710935    -0.88800
H2337       H  0.62012754  0.06063207  0.67165922     0.35300
H2338       H  0.59295918  0.07965882  0.70077339     0.40400
H2339       H  0.72334796  0.10475876  0.80543699     0.40000
H2340       H  0.73075518  0.05969223  0.80534142     0.34900
C2341       C  0.83875049  0.54335513  0.69433087    -0.26800
C2342       C  0.86703456  0.54009991  0.71935253    -0.14900
C2343       C  0.87710673  0.57318074  0.73794325     0.35700
C2344       C  0.85777840  0.60511452  0.73302069    -0.26300
C2345       C  0.82844748  0.60657809  0.71059125    -0.15500
C2346       C  0.81890228  0.57547916  0.69049306     0.36800
N2347       N  0.78892852  0.57504576  0.66686147    -0.89800
H2348       H  0.83111160  0.52013436  0.67802278     0.17900
H2349       H  0.86512551  0.62927102  0.74843301     0.17900
N2350       N  0.90645453  0.57701948  0.76195019    -0.88800
H2351       H  0.79723867  0.56956277  0.64132539     0.35300
H2352       H  0.77655649  0.60052736  0.66620634     0.40400
H2353       H  0.92921059  0.56784775  0.75102788     0.40000
H2354       H  0.90221792  0.56574487  0.78627375     0.34900
C2355       C  0.77039421  0.80516434  0.57300732    -0.26800
C2356       C  0.77045625  0.82381561  0.60591157    -0.14900
C2357       C  0.76781320  0.86231961  0.60584833     0.35700
C2358       C  0.76384261  0.88063014  0.57408015    -0.26300
C2359       C  0.76219342  0.86264626  0.54059410    -0.15500
C2360       C  0.76659029  0.82382936  0.54059259     0.36800
N2361       N  0.76911624  0.80290488  0.50841411    -0.89800
H2362       H  0.77292410  0.77574264  0.57229692     0.17900
H2363       H  0.76175100  0.91009522  0.57562442     0.17900
N2364       N  0.76908627  0.88362367  0.63815740    -0.88800
H2365       H  0.75042963  0.78286396  0.50795835     0.35300
H2366       H  0.79319421  0.78969493  0.50875859     0.40400
H2367       H  0.74614414  0.89888392  0.63948657     0.40000
H2368       H  0.78941790  0.90168690  0.63742343     0.34900
C2369       C  0.58957901  0.72308939  0.82880773    -0.26800
C2370       C  0.60119526  0.75316131  0.81132850    -0.14900
C2371       C  0.57746932  0.78094398  0.80174887     0.35700
C2372       C  0.54356033  0.77992088  0.81317608    -0.26300
C2373       C  0.53266560  0.75234352  0.83546196    -0.15500
C2374       C  0.55549480  0.72121355  0.83944239     0.36800
N2375       N  0.54518560  0.68594719  0.84996673    -0.89800
H2376       H  0.60686870  0.69988175  0.83282968     0.17900
H2377       H  0.52636810  0.80281093  0.80748330     0.17900
N2378       N  0.58813712  0.81057399  0.78107296    -0.88800
H2379       H  0.51873931  0.68253359  0.84887333     0.35300
H2380       H  0.55592727  0.68061254  0.87514629     0.40400
H2381       H  0.60624724  0.82507702  0.79665789     0.40000
H2382       H  0.56751546  0.82859894  0.77569571     0.34900
C2383       C  0.68487477  0.96104439  0.75940572    -0.26800
C2384       C  0.64885599  0.95923365  0.75383694    -0.14900
C2385       C  0.63390697  0.92421851  0.75826660     0.35700
C2386       C  0.65382540  0.89521889  0.77189001    -0.26300
C2387       C  0.68886442  0.89854908  0.78043152    -0.15500
C2388       C  0.70450442  0.93212983  0.77373493     0.36800
N2389       N  0.74018254  0.93843420  0.78234771    -0.89800
H2390       H  0.69844295  0.98522130  0.75337102     0.17900
H2391       H  0.64188775  0.86915665  0.77440684     0.17900
N2392       N  0.59837102  0.91689166  0.75006941    -0.88800
H2393       H  0.75549160  0.92279565  0.76558196     0.35300
H2394       H  0.74565349  0.93124979  0.80858745     0.40400
H2395       H  0.59328489  0.91922250  0.72291200     0.40000
H2396       H  0.58248364  0.93450825  0.76432921     0.34900
C2397       C  0.73983102  0.70198267  0.93682941    -0.26800
C2398       C  0.74221875  0.68239675  0.90454863    -0.14900
C2399       C  0.74768761  0.64423037  0.90632189     0.35700
C2400       C  0.75017965  0.62711610  0.93895533    -0.26300
C2401       C  0.74531652  0.64548784  0.97168128    -0.15500
C2402       C  0.74241484  0.68454318  0.97019097     0.36800
N2403       N  0.74401471  0.70708056  0.00177226    -0.89800
H2404       H  0.73734132  0.73136798  0.93614580     0.17900
H2405       H  0.75443335  0.59802181  0.93833502     0.17900
N2406       N  0.75016967  0.62187595  0.87485870    -0.88800
H2407       H  0.73994034  0.73452365  0.99592958     0.35300
H2408       H  0.76894505  0.70490368  0.01300944     0.40400
H2409       H  0.73078920  0.60258712  0.87455434     0.40000
H2410       H  0.77395448  0.60803838  0.87599539     0.34900
C2411       C  0.92428052  0.72157764  0.68547575    -0.26800
C2412       C  0.90232244  0.75221018  0.68588757    -0.14900
C2413       C  0.91150812  0.78337824  0.66785816     0.35700
C2414       C  0.94073015  0.78201137  0.64748358    -0.26300
C2415       C  0.96142656  0.74999875  0.64343831    -0.15500
C2416       C  0.95429985  0.72061704  0.66613247     0.36800
N2417       N  0.97682784  0.68950962  0.67074205    -0.89800
H2418       H  0.91810608  0.69807924  0.70054101     0.17900
H2419       H  0.94711218  0.80706772  0.63535108     0.17900
N2420       N  0.89189213  0.81699651  0.66942434    -0.88800
H2421       H  0.00001588  0.69788537  0.68290925     0.35300
H2422       H  0.98149516  0.67653446  0.64658534     0.40400
H2423       H  0.87134966  0.81561387  0.68611332     0.40000
H2424       H  0.88134695  0.82173693  0.64402032     0.34900
loop_ 
_geom_bond_atom_site_label_1 
_geom_bond_atom_site_label_2 
_geom_bond_distance 
_geom_bond_site_symmetry_2 
_ccdc_geom_bond_type 
Zr1           O2   2.435       .  S
Zr1           O3   2.423       .  S
Zr1           O4   2.493       .  S
Zr1           O7   2.457       .  S
Zr1           O9   2.387       .  S
Zr1          O10   2.395       .  S
Zr1          O11   2.402       .  S
Zr1          O12   2.416       .  S
O2           H58   0.990       .  S
O2           H66   0.990       .  S
O3           C23   1.282       .  A
O4           C25   1.295       .  A
O5          Zr15   2.401       .  S
O5           C24   1.279       .  A
O6          Zr14   2.393       .  S
O6           C25   1.276       .  A
O7           C24   1.290       .  A
O8          Zr16   2.454       .  S
O8           C23   1.287       .  A
O9          Zr14   2.374       .  S
O9          Zr16   2.374       .  S
O10         Zr15   2.388       .  S
O10         Zr16   2.353       .  S
O10          H45   0.966       .  S
O11         Zr14   2.388       .  S
O11         Zr31   2.398       .  S
O11          H48   0.966       .  S
O12         Zr15   2.391       .  S
O12         Zr31   2.394       .  S
Zr13         O38   2.437       .  S
Zr13         O32   2.468       .  S
Zr13         O40   2.503       .  S
Zr13         O28   2.508       .  S
Zr13         O19   2.424       .  S
Zr13         O20   2.424       .  S
Zr13         O21   2.385       .  S
Zr13         O22   2.388       .  S
Zr14         O33   2.437       .  S
Zr14         O26   2.435       .  S
Zr14         O27   2.369       .  S
Zr14         O20   2.405       .  S
Zr14         O21   2.387       .  S
Zr15         O17   2.434       .  S
Zr15         O39   2.440       .  S
Zr15         O41   2.407       .  S
Zr15         O19   2.383       .  S
Zr15         O22   2.380       .  S
Zr16         O42   2.435       .  S
Zr16         O43   2.434       .  S
Zr16         O18   2.440       .  S
Zr16         O19   2.409       .  S
Zr16         O20   2.391       .  S
O17          H54   0.990       .  S
O18          H49   0.990       .  S
O18          H63   0.990       .  S
O20          H46   0.965       .  S
O21         Zr31   2.378       .  S
O22         Zr31   2.379       .  S
O22          H47   0.966       .  S
C23        C2412   1.477       .  S
C24        C2345   1.466       .  S
C25        C2356   1.505       .  S
O26          H62   0.990       .  S
O27          C29   1.261       .  A
O28          C29   1.296       .  A
C29        C2387   1.487       .  S
O30         Zr31   2.439       .  S
O30          H59   0.990       .  S
Zr31         O34   2.437       .  S
Zr31         O35   2.441       .  S
Zr31         O36   2.421       .  S
O32          C37   1.292       .  A
O33          H50   0.990       .  S
O33          H65   0.990       .  S
O34          H51   0.990       .  S
O35          H55   0.990       .  S
O35          H64   0.990       .  S
O36          C37   1.281       .  A
C37        C2370   1.481       .  S
O38          H57   0.990       .  S
O38          H61   0.990       .  S
O39          H53   0.990       .  S
O39          H60   0.990       .  S
O40          C44   1.298       .  A
O41          C44   1.280       .  A
O42          H52   0.990       .  S
O43          H56   0.990       .  S
C44        C2398   1.516       .  S
C67        C2303   1.573       .  S
C67        C2314   1.559       .  S
C67        C2331   1.579   1_565  S
C67        C2384   1.578       .  S
Zr68         O69   2.438       .  S
Zr68         O70   2.428       .  S
Zr68         O71   2.482       .  S
Zr68         O74   2.465       .  S
Zr68         O76   2.387       .  S
Zr68         O77   2.388       .  S
Zr68         O78   2.410       .  S
Zr68         O79   2.416       .  S
O69         H125   0.990       .  S
O69         H133   0.990       .  S
O70          C90   1.283       .  A
O71          C92   1.292       .  A
O72         Zr82   2.422       .  S
O72          C91   1.285       .  A
O73         Zr81   2.342       .  S
O73          C92   1.266       .  A
O74          C91   1.291       .  A
O75         Zr83   2.429       .  S
O75          C90   1.282       .  A
O76         Zr81   2.380       .  S
O76         Zr83   2.373       .  S
O77         Zr82   2.376       .  S
O77         Zr83   2.371       .  S
O77         H112   0.966       .  S
O78         Zr81   2.387       .  S
O78         Zr98   2.398       .  S
O78         H115   0.966       .  S
O79         Zr82   2.381       .  S
O79         Zr98   2.404       .  S
Zr80        O105   2.437       .  S
Zr80         O99   2.409       .  S
Zr80        O107   2.473       .  S
Zr80         O95   2.525       .  S
Zr80         O86   2.419       .  S
Zr80         O87   2.395       .  S
Zr80         O88   2.375       .  S
Zr80         O89   2.400       .  S
Zr81        O100   2.439       .  S
Zr81         O93   2.435       .  S
Zr81         O94   2.376       .  S
Zr81         O87   2.378       .  S
Zr81         O88   2.365       .  S
Zr82         O84   2.434       .  S
Zr82        O106   2.438       .  S
Zr82        O108   2.396       .  S
Zr82         O86   2.394       .  S
Zr82         O89   2.379       .  S
Zr83        O109   2.437       .  S
Zr83        O110   2.434       .  S
Zr83         O85   2.436       .  S
Zr83         O86   2.394       .  S
Zr83         O87   2.403       .  S
O84         H121   0.990       .  S
O85         H116   0.990       .  S
O85         H130   0.990       .  S
O87         H113   0.966       .  S
O88         Zr98   2.376       .  S
O89         Zr98   2.371       .  S
O89         H114   0.966       .  S
C90        C2328   1.467       .  S
C91        C2289   1.492       .  S
C92        C2244   1.480       .  S
O93         H129   0.989       .  S
O94          C96   1.274       .  A
O95          C96   1.302       .  A
C96        C2261   1.507       .  S
O97         Zr98   2.440       .  S
O97         H126   0.990       .  S
Zr98        O101   2.437       .  S
Zr98        O102   2.441       .  S
Zr98        O103   2.436       .  S
O99         C104   1.282       .  A
O100        H117   0.990       .  S
O100        H132   0.990       .  S
O101        H118   0.990       .  S
O102        H122   0.990       .  S
O102        H131   0.989       .  S
O103        C104   1.284       .  A
C104       C2233   1.483       .  S
O105        H124   0.990       .  S
O105        H128   0.990       .  S
O106        H120   0.990       .  S
O106        H127   0.990       .  S
O107        C111   1.293       .  A
O108        C111   1.281       .  A
O109        H119   0.990       .  S
O110        H123   0.990       .  S
C111       C2272   1.493       .  S
C134       C2202   1.560       .  S
C134       C2216   1.567       .  S
C134       C2230   1.561       .  S
C134       C2342   1.573       .  S
C135       C2160   1.566       .  S
C135       C2174   1.603       .  S
C135       C2191   1.580       .  S
C135       C2359   1.584       .  S
Zr136       O137   2.438       .  S
Zr136       O138   2.417       .  S
Zr136       O139   2.476       .  S
Zr136       O142   2.496       .  S
Zr136       O144   2.391       .  S
Zr136       O145   2.382       .  S
Zr136       O146   2.417       .  S
Zr136       O147   2.412       .  S
O137        H193   0.990       .  S
O137        H201   0.991       .  S
O138        C158   1.283       .  A
O139        C160   1.291       .  A
O140       Zr150   2.406       .  S
O140        C159   1.281       .  A
O141       Zr149   2.377       .  S
O141        C160   1.276       .  A
O142        C159   1.296       .  A
O143       Zr151   2.425       .  S
O143        C158   1.284       .  A
O144       Zr149   2.379       .  S
O144       Zr151   2.374       .  S
O145       Zr150   2.362       .  S
O145       Zr151   2.373       .  S
O145        H180   0.965       .  S
O146       Zr149   2.389       .  S
O146       Zr166   2.397       .  S
O146        H183   0.966       .  S
O147       Zr150   2.375       .  S
O147       Zr166   2.407       .  S
Zr148       O173   2.440       .  S
Zr148       O167   2.408       .  S
Zr148       O175   2.507       .  S
Zr148       O163   2.536       .  S
Zr148       O154   2.405       .  S
Zr148       O155   2.407       .  S
Zr148       O156   2.383       .  S
Zr148       O157   2.401       .  S
Zr149       O168   2.439       .  S
Zr149       O161   2.435       .  S
Zr149       O162   2.392       .  S
Zr149       O155   2.389       .  S
Zr149       O156   2.370       .  S
Zr150       O152   2.433       .  S
Zr150       O174   2.439       .  S
Zr150       O176   2.361       .  S
Zr150       O154   2.395       .  S
Zr150       O157   2.381       .  S
Zr151       O177   2.435       .  S
Zr151       O178   2.435       .  S
Zr151       O153   2.438       .  S
Zr151       O154   2.388       .  S
Zr151       O155   2.398       .  S
O152        H189   0.990       .  S
O153        H184   0.990       .  S
O153        H198   0.990       .  S
O155        H181   0.966       .  S
O156       Zr166   2.368       .  S
O157       Zr166   2.373       .  S
O157        H182   0.966       .  S
C158       C2132   1.485       .  S
C159       C2118   1.505       .  S
C160       C2093   1.476       .  S
O161        H197   0.990       .  S
O162        C164   1.277       .  A
O163        C164   1.304       .  A
C164       C2149   1.513       .  S
O165       Zr166   2.438       .  S
O165        H194   0.990       .  S
Zr166       O169   2.438       .  S
Zr166       O170   2.439       .  S
Zr166       O171   2.432       .  S
O167        C172   1.279       .  A
O168        H185   0.990       .  S
O168        H200   0.990       .  S
O169        H186   0.990       .  S
O170        H190   0.990       .  S
O170        H199   0.989       .  S
O171        C172   1.284       .  A
C172       C2104   1.458       .  S
O173        H192   0.990       .  S
O173        H196   0.990       .  S
O174        H188   0.990       .  S
O174        H195   0.990       .  S
O175        C179   1.300       .  A
O176        C179   1.272       .  A
O177        H187   0.990       .  S
O178        H191   0.990       .  S
C179       C2188   1.499       .  S
C202       C2062   1.570       .  S
C202       C2079   1.583       .  S
C202       C2090   1.572       .  S
C202       C2401   1.599   1_554  S
C203       C2020   1.592       .  S
C203       C2034   1.589       .  S
C203       C2048   1.614       .  S
C203       C2121   1.596       .  S
C204       C1964   1.556       .  S
C204       C1978   1.558   1_565  S
C204       C1992   1.556   1_565  S
C204       C2006   1.539       .  S
C205       C1922   1.590   1_556  S
C205       C1936   1.579       .  S
C205       C1953   1.563       .  S
C205       C2286   1.580       .  S
C206       C1866   1.558       .  S
C206       C1880   1.559       .  S
C206       C1894   1.551       .  S
C206       C1908   1.553       .  S
C207       C1824   1.588       .  S
C207       C1838   1.599       .  S
C207       C1852   1.576       .  S
C207       C2258   1.578       .  S
C208       C1782   1.561       .  S
C208       C1796   1.560       .  S
C208       C1810   1.544       .  S
C208       C2135   1.558       .  S
C209       C1726   1.597       .  S
C209       C1743   1.572       .  S
C209       C1754   1.587       .  S
C209       C1768   1.592       .  S
C210       C1684   1.590   1_655  S
C210       C1701   1.603       .  S
C210       C1712   1.580       .  S
C210       C2146   1.601       .  S
Zr211       O212   2.437       .  S
Zr211       O213   2.455       .  S
Zr211       O214   2.445       .  S
Zr211       O217   2.427       .  S
Zr211       O219   2.375       .  S
Zr211       O220   2.376       .  S
Zr211       O221   2.412       .  S
Zr211       O222   2.414       .  S
O212        H268   0.990       .  S
O212        H276   0.990       .  S
O213        C233   1.290       .  A
O214        C235   1.286       .  A
O215       Zr225   2.382       .  S
O215        C234   1.277       .  A
O216       Zr224   2.407       .  S
O216        C235   1.279       .  A
O217        C234   1.282       .  A
O218       Zr226   2.465       .  S
O218        C233   1.289       .  A
O219       Zr224   2.381       .  S
O219       Zr226   2.374       .  S
O220       Zr225   2.379       .  S
O220       Zr226   2.360       .  S
O220        H255   0.966       .  S
O221       Zr224   2.380       .  S
O221       Zr241   2.404       .  S
O221        H258   0.966       .  S
O222       Zr225   2.376       .  S
O222       Zr241   2.401       .  S
Zr223       O248   2.438       .  S
Zr223       O242   2.479       .  S
Zr223       O250   2.511       .  S
Zr223       O238   2.449       .  S
Zr223       O229   2.408       .  S
Zr223       O230   2.433       .  S
Zr223       O231   2.394       .  S
Zr223       O232   2.378       .  S
Zr224       O243   2.439       .  S
Zr224       O236   2.435       .  S
Zr224       O237   2.383       .  S
Zr224       O230   2.398       .  S
Zr224       O231   2.391       .  S
Zr225       O227   2.435       .  S
Zr225       O249   2.438       .  S
Zr225       O251   2.383       .  S
Zr225       O229   2.387       .  S
Zr225       O232   2.379       .  S
Zr226       O252   2.434       .  S
Zr226       O253   2.435       .  S
Zr226       O228   2.438       .  S
Zr226       O229   2.412       .  S
Zr226       O230   2.408       .  S
O227        H264   0.990       .  S
O228        H259   0.990       .  S
O228        H273   0.990       .  S
O230        H256   0.966       .  S
O231       Zr241   2.368       .  S
O232       Zr241   2.382       .  S
O232        H257   0.966       .  S
C233       C1771   1.514       .  S
C234       C1673   1.452       .  S
C235       C2023   1.465       .  S
O236        H272   0.990       .  S
O237        C239   1.276       .  A
O238        C239   1.287       .  A
C239       C1656   1.455       .  S
O240       Zr241   2.439       .  S
O240        H269   0.990       .  S
Zr241       O244   2.437       .  S
Zr241       O245   2.438       .  S
Zr241       O246   2.443       .  S
O242        C247   1.294       .  A
O243        H260   0.989       .  S
O243        H275   0.990       .  S
O244        H261   0.989       .  S
O245        H265   0.990       .  S
O245        H274   0.990       .  S
O246        C247   1.285       .  A
C247       C1645   1.514       .  S
O248        H267   0.990       .  S
O248        H271   0.990       .  S
O249        H263   0.990       .  S
O249        H270   0.990       .  S
O250        C254   1.299       .  A
O251        C254   1.276       .  A
O252        H262   0.990       .  S
O253        H266   0.990       .  S
C254       C1687   1.509       .  S
C277       C1600   1.596       .  S
C277       C1614   1.585       .  S
C277       C1631   1.574       .  S
C277       C1642   1.591   1_556  S
C278       C1558   1.586       .  S
C278       C1572   1.590       .  S
C278       C1586   1.552       .  S
C278       C2247   1.560       .  S
Zr279       O280   2.439       .  S
Zr279       O281   2.398       .  S
Zr279       O282   2.465       .  S
Zr279       O285   2.489       .  S
Zr279       O287   2.397       .  S
Zr279       O288   2.384       .  S
Zr279       O289   2.408       .  S
Zr279       O290   2.386       .  S
O280        H336   0.990       .  S
O280        H344   0.990       .  S
O281        C301   1.280       .  A
O282        C303   1.290       .  A
O283       Zr293   2.401       .  S
O283        C302   1.277       .  A
O284       Zr292   2.385       .  S
O284        C303   1.278       .  A
O285        C302   1.295       .  A
O286       Zr294   2.447       .  S
O286        C301   1.285       .  A
O287       Zr292   2.386       .  S
O287       Zr294   2.369       .  S
O288       Zr293   2.373       .  S
O288       Zr294   2.376       .  S
O288        H323   0.966       .  S
O289       Zr292   2.401       .  S
O289       Zr309   2.368       .  S
O289        H326   0.965       .  S
O290       Zr293   2.384       .  S
O290       Zr309   2.389       .  S
Zr291       O316   2.438       .  S
Zr291       O310   2.439       .  S
Zr291       O318   2.507       .  S
Zr291       O306   2.519       .  S
Zr291       O297   2.419       .  S
Zr291       O298   2.422       .  S
Zr291       O299   2.385       .  S
Zr291       O300   2.402       .  S
Zr292       O311   2.433       .  S
Zr292       O304   2.437       .  S
Zr292       O305   2.404       .  S
Zr292       O298   2.381       .  S
Zr292       O299   2.380       .  S
Zr293       O295   2.439       .  S
Zr293       O317   2.436       .  S
Zr293       O319   2.400       .  S
Zr293       O297   2.386       .  S
Zr293       O300   2.382       .  S
Zr294       O320   2.436       .  S
Zr294       O321   2.437       .  S
Zr294       O296   2.438       .  S
Zr294       O297   2.399       .  S
Zr294       O298   2.406       .  S
O295        H332   0.990       .  S
O296        H327   0.990       .  S
O296        H341   0.990       .  S
O298        H324   0.966       .  S
O299       Zr309   2.384       .  S
O300       Zr309   2.383       .  S
O300        H325   0.966       .  S
C301       C1883   1.495       .  S
C302       C1530   1.510       .  S
C303       C1589   1.471       .  S
O304        H340   0.990       .  S
O305        C307   1.280       .  A
O306        C307   1.302       .  A
C307       C1544   1.508       .  S
O308       Zr309   2.440       .  S
O308        H337   0.990       .  S
Zr309       O312   2.439       .  S
Zr309       O313   2.440       .  S
Zr309       O314   2.382       .  S
O310        C315   1.287       .  A
O311        H328   0.990       .  S
O311        H343   0.989       .  S
O312        H329   0.990       .  S
O313        H333   0.990       .  S
O313        H342   0.990       .  S
O314        C315   1.274       .  A
C315       C1981   1.456       .  S
O316        H335   0.990       .  S
O316        H339   0.990       .  S
O317        H331   0.987       .  S
O317        H338   0.990       .  S
O318        C322   1.291       .  A
O319        C322   1.268       .  A
O320        H330   0.990       .  S
O321        H334   0.990       .  S
C322       C1519   1.499       .  S
C345       C1488   1.588       .  S
C345       C1505   1.585       .  S
C345       C1516   1.589       .  S
C345       C2275   1.577   1_455  S
Zr346       O347   2.436       .  S
Zr346       O348   2.408       .  S
Zr346       O349   2.505       .  S
Zr346       O352   2.489       .  S
Zr346       O354   2.388       .  S
Zr346       O355   2.399       .  S
Zr346       O356   2.404       .  S
Zr346       O357   2.405       .  S
O347        H403   0.990       .  S
O347        H411   0.990       .  S
O348        C368   1.281       .  A
O349        C370   1.299       .  A
O350       Zr360   2.420       .  S
O350        C369   1.278       .  A
O351       Zr359   2.411       .  S
O351        C370   1.281       .  A
O352        C369   1.295       .  A
O353       Zr361   2.392       .  S
O353        C368   1.276       .  A
O354       Zr359   2.383       .  S
O354       Zr361   2.383       .  S
O355       Zr360   2.381       .  S
O355       Zr361   2.380       .  S
O355        H390   0.966       .  S
O356       Zr359   2.400       .  S
O356       Zr376   2.397       .  S
O356        H393   0.966       .  S
O357       Zr360   2.396       .  S
O357       Zr376   2.386       .  S
Zr358       O383   2.438       .  S
Zr358       O377   2.390       .  S
Zr358       O385   2.443       .  S
Zr358       O373   2.467       .  S
Zr358       O364   2.394       .  S
Zr358       O365   2.392       .  S
Zr358       O366   2.376       .  S
Zr358       O367   2.392       .  S
Zr359       O378   2.435       .  S
Zr359       O371   2.434       .  S
Zr359       O372   2.416       .  S
Zr359       O365   2.389       .  S
Zr359       O366   2.377       .  S
Zr360       O362   2.437       .  S
Zr360       O384   2.436       .  S
Zr360       O386   2.429       .  S
Zr360       O364   2.392       .  S
Zr360       O367   2.376       .  S
Zr361       O387   2.437       .  S
Zr361       O388   2.436       .  S
Zr361       O363   2.436       .  S
Zr361       O364   2.387       .  S
Zr361       O365   2.385       .  S
O362        H399   0.990       .  S
O363        H394   0.990       .  S
O363        H408   0.990       .  S
O365        H391   0.966       .  S
O366       Zr376   2.375       .  S
O367       Zr376   2.369       .  S
O367        H392   0.965       .  S
C368       C1813   1.452       .  S
C369       C1477   1.489       .  S
C370       C1827   1.509       .  S
O371        H407   0.990       .  S
O372        C374   1.281       .  A
O373        C374   1.291       .  A
C374       C1460   1.480       .  S
O375       Zr376   2.438       .  S
O375        H404   0.991       .  S
Zr376       O379   2.436       .  S
Zr376       O380   2.441       .  S
Zr376       O381   2.420       .  S
O377        C382   1.279       .  A
O378        H395   0.990       .  S
O378        H410   0.990       .  S
O379        H396   0.990       .  S
O380        H400   0.990       .  S
O380        H409   0.990       .  S
O381        C382   1.282       .  A
C382       C1449   1.459       .  S
O383        H402   0.990       .  S
O383        H406   0.990       .  S
O384        H398   0.990       .  S
O384        H405   0.990       .  S
O385        C389   1.287       .  A
O386        C389   1.283       .  A
O387        H397   0.990       .  S
O388        H401   0.990       .  S
C389       C1925   1.473       .  S
C412       C1418   1.552       .  S
C412       C1432   1.545       .  S
C412       C1446   1.559       .  S
C412       C2107   1.565   1_545  S
C413       C1379   1.589       .  S
C413       C1390   1.556       .  S
C413       C1407   1.574       .  S
C413       C1463   1.580   1_455  S
Zr414       O415   2.438       .  S
Zr414       O416   2.458       .  S
Zr414       O417   2.477       .  S
Zr414       O420   2.446       .  S
Zr414       O422   2.376       .  S
Zr414       O423   2.390       .  S
Zr414       O424   2.416       .  S
Zr414       O425   2.416       .  S
O415        H471   0.990       .  S
O415        H479   0.990       .  S
O416        C436   1.290       .  A
O417        C438   1.292       .  A
O418       Zr428   2.392       .  S
O418        C437   1.269       .  A
O419       Zr427   2.401       .  S
O419        C438   1.277       .  A
O420        C437   1.286       .  A
O421       Zr429   2.455       .  S
O421        C436   1.288       .  A
O422       Zr427   2.387       .  S
O422       Zr429   2.378       .  S
O423       Zr428   2.383       .  S
O423       Zr429   2.355       .  S
O423        H458   0.964       .  S
O424       Zr427   2.384       .  S
O424       Zr444   2.409       .  S
O424        H461   0.966       .  S
O425       Zr428   2.398       .  S
O425       Zr444   2.411       .  S
Zr426       O451   2.439       .  S
Zr426       O445   2.445       .  S
Zr426       O453   2.483       .  S
Zr426       O441   2.443       .  S
Zr426       O432   2.415       .  S
Zr426       O433   2.423       .  S
Zr426       O434   2.390       .  S
Zr426       O435   2.376       .  S
Zr427       O446   2.438       .  S
Zr427       O439   2.436       .  S
Zr427       O440   2.375       .  S
Zr427       O433   2.398       .  S
Zr427       O434   2.379       .  S
Zr428       O430   2.436       .  S
Zr428       O452   2.437       .  S
Zr428       O454   2.405       .  S
Zr428       O432   2.385       .  S
Zr428       O435   2.390       .  S
Zr429       O455   2.435       .  S
Zr429       O456   2.435       .  S
Zr429       O431   2.438       .  S
Zr429       O432   2.421       .  S
Zr429       O433   2.391       .  S
O430        H467   0.990       .  S
O431        H462   0.990       .  S
O431        H476   0.989       .  S
O433        H459   0.965       .  S
O434       Zr444   2.364       .  S
O435       Zr444   2.368       .  S
O435        H460   0.964       .  S
C436       C1365   1.502       .  S
C437       C1309   1.458       .  S
C438       C1337   1.480       .  S
O439        H475   0.990       .  S
O440        C442   1.277       .  A
O441        C442   1.286       .  A
C442       C1348   1.471       .  S
O443       Zr444   2.439       .  S
O443        H472   0.990       .  S
Zr444       O447   2.437       .  S
Zr444       O448   2.442       .  S
Zr444       O449   2.470       .  S
O445        C450   1.289       .  A
O446        H463   0.990       .  S
O446        H478   0.990       .  S
O447        H464   0.990       .  S
O448        H468   0.990       .  S
O448        H477   0.990       .  S
O449        C450   1.290       .  A
C450       C1320   1.512       .  S
O451        H470   0.990       .  S
O451        H474   0.990       .  S
O452        H466   0.990       .  S
O452        H473   0.990       .  S
O453        C457   1.294       .  A
O454        C457   1.280       .  A
O455        H465   0.990       .  S
O456        H469   0.990       .  S
C457       C1404   1.489       .  S
C480       C1278   1.581       .  S
C480       C1292   1.577       .  S
C480       C1362   1.586       .  S
C480       C1533   1.579       .  S
C481       C1253   1.566       .  S
C481       C1264   1.561   1_545  S
C481       C1351   1.557       .  S
C481       C1659   1.561   1_545  S
Zr482       O483   2.439       .  S
Zr482       O484   2.438       .  S
Zr482       O485   2.411   1_455  S
Zr482       O488   2.447       .  S
Zr482       O490   2.391   1_455  S
Zr482       O491   2.372       .  S
Zr482       O492   2.416   1_445  S
Zr482       O493   2.404   1_545  S
O483        H539   0.991       .  S
O483        H547   0.990   1_545  S
O484        C504   1.285       .  A
O485        C506   1.279       .  A
O486       Zr496   2.422       .  S
O486        C505   1.280       .  A
O487       Zr495   2.393   1_545  S
O487        C506   1.278       .  A
O488        C505   1.286       .  A
O489       Zr497   2.428       .  S
O489        C504   1.283   1_655  A
O490       Zr495   2.391   1_545  S
O490       Zr497   2.368       .  S
O491       Zr496   2.382       .  S
O491       Zr497   2.375   1_455  S
O491        H526   0.965       .  S
O492       Zr495   2.403       .  S
O492       Zr512   2.389   1_655  S
O492        H529   0.965       .  S
O493       Zr496   2.379   1_565  S
O493       Zr512   2.415       .  S
Zr494       O519   2.442       .  S
Zr494       O513   2.446       .  S
Zr494       O521   2.386   1_655  S
Zr494       O509   2.415       .  S
Zr494       O500   2.404   1_665  S
Zr494       O501   2.402   1_565  S
Zr494       O502   2.365       .  S
Zr494       O503   2.393   1_655  S
Zr495       O514   2.438       .  S
Zr495       O507   2.434   1_565  S
Zr495       O508   2.425       .  S
Zr495       O501   2.382   1_565  S
Zr495       O502   2.384       .  S
Zr496       O498   2.434   1_545  S
Zr496       O520   2.443       .  S
Zr496       O522   2.389       .  S
Zr496       O500   2.384       .  S
Zr496       O503   2.385   1_545  S
Zr497       O523   2.436   1_655  S
Zr497       O524   2.436       .  S
Zr497       O499   2.436       .  S
Zr497       O500   2.381   1_655  S
Zr497       O501   2.403       .  S
O498        H535   0.990       .  S
O499        H530   0.990       .  S
O499        H544   0.990       .  S
O501        H527   0.966       .  S
O502       Zr512   2.377   1_655  S
O503       Zr512   2.380       .  S
O503        H528   0.966       .  S
C504       C1393   1.484       .  S
C505       C1236   1.495       .  S
C506       C1435   1.438       .  S
O507        H543   0.990       .  S
O508        C510   1.282       .  A
O509        C510   1.280       .  A
C510       C2163   1.466       .  S
O511       Zr512   2.440       .  S
O511        H540   0.990       .  S
Zr512       O515   2.439   1_455  S
Zr512       O516   2.439       .  S
Zr512       O517   2.431   1_455  S
O513        C518   1.286       .  A
O514        H531   0.990       .  S
O514        H546   0.990       .  S
O515        H532   0.990       .  S
O516        H536   0.990       .  S
O516        H545   0.990       .  S
O517        C518   1.282       .  A
C518       C1225   1.476       .  S
O519        H538   0.991   1_565  S
O519        H542   0.991       .  S
O520        H534   0.990       .  S
O520        H541   0.991       .  S
O521        C525   1.274       .  A
O522        C525   1.278   1_545  A
O523        H533   0.990       .  S
O524        H537   0.990       .  S
C525       C1995   1.443   1_565  S
Zr548       O549   2.438       .  S
Zr548       O550   2.400       .  S
Zr548       O551   2.445       .  S
Zr548       O554   2.464       .  S
Zr548       O556   2.387   1_545  S
Zr548       O557   2.385       .  S
Zr548       O558   2.405   1_556  S
Zr548       O559   2.400       .  S
O549        H605   0.991       .  S
O549        H613   0.990       .  S
O550        C570   1.278       .  A
O551        C572   1.286   1_545  A
O552       Zr562   2.424       .  S
O552        C571   1.282   1_655  A
O553       Zr561   2.415       .  S
O553        C572   1.281       .  A
O554        C571   1.291       .  A
O555       Zr563   2.386   1_455  S
O555        C570   1.276   1_565  A
O556       Zr561   2.386       .  S
O556       Zr563   2.374   1_455  S
O557       Zr562   2.376   1_455  S
O557       Zr563   2.373   1_445  S
O557        H592   0.966       .  S
O558       Zr561   2.398   1_544  S
O558       Zr578   2.392       .  S
O558        H595   0.966       .  S
O559       Zr562   2.387   1_455  S
O559       Zr578   2.398   1_556  S
Zr560       O585   2.437   1_554  S
Zr560       O579   2.375       .  S
Zr560       O587   2.445   1_565  S
Zr560       O575   2.458       .  S
Zr560       O566   2.393   1_564  S
Zr560       O567   2.390   1_554  S
Zr560       O568   2.381   1_655  S
Zr560       O569   2.391   1_565  S
Zr561       O580   2.439   1_556  S
Zr561       O573   2.435       .  S
Zr561       O574   2.434   1_556  S
Zr561       O567   2.393   1_455  S
Zr561       O568   2.370   1_556  S
Zr562       O564   2.434       .  S
Zr562       O586   2.437       .  S
Zr562       O588   2.406       .  S
Zr562       O566   2.394       .  S
Zr562       O569   2.378   1_556  S
Zr563       O589   2.435   1_565  S
Zr563       O590   2.436       .  S
Zr563       O565   2.436   1_655  S
Zr563       O566   2.383   1_565  S
Zr563       O567   2.382       .  S
O564        H601   0.990       .  S
O565        H596   0.990       .  S
O565        H610   0.990       .  S
O567        H593   0.966       .  S
O568       Zr578   2.374   1_565  S
O569       Zr578   2.372   1_655  S
O569        H594   0.965       .  S
C570       C2009   1.446       .  S
C571       C1502   1.482       .  S
C572       C1628   1.467       .  S
O573        H609   0.990       .  S
O574        C576   1.288   1_455  A
O575        C576   1.289       .  A
C576       C1715   1.502       .  S
O577       Zr578   2.439       .  S
O577        H606   0.990       .  S
Zr578       O581   2.437       .  S
Zr578       O582   2.440   1_455  S
Zr578       O583   2.426   1_455  S
O579        C584   1.273   1_565  A
O580        H597   0.990       .  S
O580        H612   0.990       .  S
O581        H598   0.990       .  S
O582        H602   0.990       .  S
O582        H611   0.990   1_655  S
O583        C584   1.285       .  A
C584       C1421   1.467       .  S
O585        H604   0.991       .  S
O585        H608   0.990       .  S
O586        H600   0.990       .  S
O586        H607   0.990       .  S
O587        C591   1.287   1_554  A
O588        C591   1.281       .  A
O589        H599   0.990       .  S
O590        H603   0.990       .  S
C591       C1950   1.482       .  S
Zr614       O615   2.438       .  S
Zr614       O616   2.458       .  S
Zr614       O617   2.496       .  S
Zr614       O620   2.504   1_545  S
Zr614       O622   2.387       .  S
Zr614       O623   2.384   1_545  S
Zr614       O624   2.425       .  S
Zr614       O625   2.417   1_545  S
O615        H671   0.990       .  S
O615        H679   0.990       .  S
O616        C636   1.290   1_545  A
O617        C638   1.297       .  A
O618       Zr628   2.432       .  S
O618        C637   1.284       .  A
O619       Zr627   2.394       .  S
O619        C638   1.276       .  A
O620        C637   1.299       .  A
O621       Zr629   2.426       .  S
O621        C636   1.281       .  A
O622       Zr627   2.393       .  S
O622       Zr629   2.373   1_545  S
O623       Zr628   2.386       .  S
O623       Zr629   2.381       .  S
O623        H658   0.966       .  S
O624       Zr627   2.398       .  S
O624       Zr644   2.405       .  S
O624        H661   0.966       .  S
O625       Zr628   2.391       .  S
O625       Zr644   2.406   1_565  S
Zr626       O651   2.435       .  S
Zr626       O645   2.386       .  S
Zr626       O653   2.471       .  S
Zr626       O641   2.514   1_565  S
Zr626       O632   2.407       .  S
Zr626       O633   2.402       .  S
Zr626       O634   2.379   1_565  S
Zr626       O635   2.398       .  S
Zr627       O646   2.440       .  S
Zr627       O639   2.435       .  S
Zr627       O640   2.410       .  S
Zr627       O633   2.390   1_545  S
Zr627       O634   2.370       .  S
Zr628       O630   2.436       .  S
Zr628       O652   2.434       .  S
Zr628       O654   2.422       .  S
Zr628       O632   2.400       .  S
Zr628       O635   2.384       .  S
Zr629       O655   2.437       .  S
Zr629       O656   2.434       .  S
Zr629       O631   2.438       .  S
Zr629       O632   2.398       .  S
Zr629       O633   2.404       .  S
O630        H667   0.990       .  S
O631        H662   0.990       .  S
O631        H676   0.990   1_565  S
O633        H659   0.966       .  S
O634       Zr644   2.365       .  S
O635       Zr644   2.368   1_565  S
O635        H660   0.966       .  S
C636       C2317   1.493       .  S
C637       C2177   1.505       .  S
C638       C1575   1.485       .  S
O639        H675   0.990       .  S
O640        C642   1.281       .  A
O641        C642   1.300       .  A
C642       C1208   1.517       .  S
O643       Zr644   2.439       .  S
O643        H672   0.990       .  S
Zr644       O647   2.437       .  S
Zr644       O648   2.439       .  S
Zr644       O649   2.455       .  S
O645        C650   1.275       .  A
O646        H663   0.990       .  S
O646        H678   0.990       .  S
O647        H664   0.990       .  S
O648        H668   0.990   1_545  S
O648        H677   0.989   1_545  S
O649        C650   1.289   1_545  A
C650       C1267   1.459       .  S
O651        H670   0.990       .  S
O651        H674   0.990       .  S
O652        H666   0.990       .  S
O652        H673   0.990       .  S
O653        C657   1.293       .  A
O654        C657   1.282       .  A
O655        H665   0.990       .  S
O656        H669   0.990       .  S
C657       C2051   1.483       .  S
C680       C1211   1.586       .  S
C680       C1239   1.577       .  S
C680       C1323   1.584       .  S
C680       C1547   1.595       .  S
Zr681       O682   2.436       .  S
Zr681       O683   2.413       .  S
Zr681       O684   2.526       .  S
Zr681       O687   2.522       .  S
Zr681       O689   2.387   1_545  S
Zr681       O690   2.387       .  S
Zr681       O691   2.411   1_554  S
Zr681       O692   2.412   1_554  S
O682        H738   0.990       .  S
O682        H746   0.990   1_554  S
O683        C703   1.281       .  A
O684        C705   1.303   1_545  A
O685       Zr695   2.367       .  S
O685        C704   1.273       .  A
O686       Zr694   2.367       .  S
O686        C705   1.271   1_556  A
O687        C704   1.302       .  A
O688       Zr696   2.428       .  S
O688        C703   1.284   1_565  A
O689       Zr694   2.379   1_554  S
O689       Zr696   2.374       .  S
O690       Zr695   2.381       .  S
O690       Zr696   2.364   1_545  S
O690        H725   0.966       .  S
O691       Zr694   2.393   1_545  S
O691       Zr711   2.397       .  S
O691        H728   0.966       .  S
O692       Zr695   2.388   1_556  S
O692       Zr711   2.402       .  S
Zr693       O718   2.441       .  S
Zr693       O712   2.407       .  S
Zr693       O720   2.476   1_565  S
Zr693       O708   2.476       .  S
Zr693       O699   2.404   1_566  S
Zr693       O700   2.403   1_556  S
Zr693       O701   2.379       .  S
Zr693       O702   2.387   1_565  S
Zr694       O713   2.439       .  S
Zr694       O706   2.436   1_556  S
Zr694       O707   2.381       .  S
Zr694       O700   2.384   1_556  S
Zr694       O701   2.372       .  S
Zr695       O697   2.435   1_554  S
Zr695       O719   2.439       .  S
Zr695       O721   2.389       .  S
Zr695       O699   2.381       .  S
Zr695       O702   2.368   1_554  S
Zr696       O722   2.436   1_565  S
Zr696       O723   2.434       .  S
Zr696       O698   2.437       .  S
Zr696       O699   2.395   1_565  S
Zr696       O700   2.396       .  S
O697        H734   0.990       .  S
O698        H729   0.990       .  S
O698        H743   0.990       .  S
O700        H726   0.966       .  S
O701       Zr711   2.378   1_565  S
O702       Zr711   2.374       .  S
O702        H727   0.966       .  S
C703       C1250   1.475       .  S
C704       C1197   1.512       .  S
C705       C1617   1.487       .  S
O706        H742   0.990       .  S
O707        C709   1.276       .  A
O708        C709   1.292       .  A
C709       C1180   1.498       .  S
O710       Zr711   2.437       .  S
O710        H739   0.990       .  S
Zr711       O714   2.436       .  S
Zr711       O715   2.439       .  S
Zr711       O716   2.436       .  S
O712        C717   1.280   1_565  A
O713        H730   0.990       .  S
O713        H745   0.990       .  S
O714        H731   0.990   1_545  S
O715        H735   0.990       .  S
O715        H744   0.990       .  S
O716        C717   1.285       .  A
C717       C2300   1.489       .  S
O718        H737   0.990   1_556  S
O718        H741   0.990       .  S
O719        H733   0.990       .  S
O719        H740   0.990       .  S
O720        C724   1.291       .  A
O721        C724   1.278   1_554  A
O722        H732   0.990       .  S
O723        H736   0.990       .  S
C724       C1939   1.485       .  S
C747       C1166   1.554       .  S
C747       C1194   1.583       .  S
C747       C1334   1.575       .  S
C747       C1474   1.598       .  S
Zr748       O749   2.437       .  S
Zr748       O750   2.419       .  S
Zr748       O751   2.470       .  S
Zr748       O754   2.480       .  S
Zr748       O756   2.382       .  S
Zr748       O757   2.387       .  S
Zr748       O758   2.408   1_556  S
Zr748       O759   2.400   1_556  S
O749        H805   0.990       .  S
O749        H813   0.990       .  S
O750        C770   1.284       .  A
O751        C772   1.292       .  A
O752       Zr762   2.409       .  S
O752        C771   1.280       .  A
O753       Zr761   2.360       .  S
O753        C772   1.268       .  A
O754        C771   1.294       .  A
O755       Zr763   2.395       .  S
O755        C770   1.276       .  A
O756       Zr761   2.385       .  S
O756       Zr763   2.371       .  S
O757       Zr762   2.367       .  S
O757       Zr763   2.373       .  S
O757        H792   0.966       .  S
O758       Zr761   2.391   1_554  S
O758       Zr778   2.396       .  S
O758        H795   0.966       .  S
O759       Zr762   2.392   1_554  S
O759       Zr778   2.395       .  S
Zr760       O785   2.438       .  S
Zr760       O779   2.411       .  S
Zr760       O787   2.438       .  S
Zr760       O775   2.479       .  S
Zr760       O766   2.410   1_554  S
Zr760       O767   2.394   1_554  S
Zr760       O768   2.386       .  S
Zr760       O769   2.390       .  S
Zr761       O780   2.435   1_556  S
Zr761       O773   2.433       .  S
Zr761       O774   2.401   1_556  S
Zr761       O767   2.389       .  S
Zr761       O768   2.369   1_556  S
Zr762       O764   2.436   1_556  S
Zr762       O786   2.436       .  S
Zr762       O788   2.396   1_556  S
Zr762       O766   2.398       .  S
Zr762       O769   2.386   1_556  S
Zr763       O789   2.437       .  S
Zr763       O790   2.436       .  S
Zr763       O765   2.440       .  S
Zr763       O766   2.398       .  S
Zr763       O767   2.373       .  S
O764        H801   0.990       .  S
O765        H796   0.990       .  S
O765        H810   0.990       .  S
O767        H793   0.964       .  S
O768       Zr778   2.391       .  S
O769       Zr778   2.366       .  S
O769        H794   0.965       .  S
C770       C1897   1.459       .  S
C771       C1295   1.483       .  S
C772       C1152   1.484       .  S
O773        H809   0.991       .  S
O774        C776   1.279       .  A
O775        C776   1.292       .  A
C776       C2076   1.482       .  S
O777       Zr778   2.438       .  S
O777        H806   0.991       .  S
Zr778       O781   2.438       .  S
Zr778       O782   2.441       .  S
Zr778       O783   2.413       .  S
O779        C784   1.282       .  A
O780        H797   0.990       .  S
O780        H812   0.990       .  S
O781        H798   0.990       .  S
O782        H802   0.990       .  S
O782        H811   0.990       .  S
O783        C784   1.279       .  A
C784       C1785   1.462       .  S
O785        H804   0.990       .  S
O785        H808   0.990       .  S
O786        H800   0.990       .  S
O786        H807   0.990       .  S
O787        C791   1.285       .  A
O788        C791   1.278       .  A
O789        H799   0.990       .  S
O790        H803   0.990       .  S
C791       C1169   1.456       .  S
Zr814       O815   2.437       .  S
Zr814       O816   2.386       .  S
Zr814       O817   2.499       .  S
Zr814       O820   2.502       .  S
Zr814       O822   2.393   1_455  S
Zr814       O823   2.402       .  S
Zr814       O824   2.401       .  S
Zr814       O825   2.402       .  S
O815        H871   0.990       .  S
O815        H879   0.990       .  S
O816        C836   1.277       .  A
O817        C838   1.298       .  A
O818       Zr828   2.382       .  S
O818        C837   1.277       .  A
O819       Zr827   2.410       .  S
O819        C838   1.282   1_655  A
O820        C837   1.297       .  A
O821       Zr829   2.441   1_455  S
O821        C836   1.285       .  A
O822       Zr827   2.386       .  S
O822       Zr829   2.367       .  S
O823       Zr828   2.368       .  S
O823       Zr829   2.369   1_455  S
O823        H858   0.971       .  S
O824       Zr827   2.397   1_455  S
O824       Zr844   2.388       .  S
O824        H861   0.966       .  S
O825       Zr828   2.401       .  S
O825       Zr844   2.378       .  S
Zr826       O851   2.438       .  S
Zr826       O845   2.433       .  S
Zr826       O853   2.467       .  S
Zr826       O841   2.441       .  S
Zr826       O832   2.408       .  S
Zr826       O833   2.417       .  S
Zr826       O834   2.385       .  S
Zr826       O835   2.375       .  S
Zr827       O846   2.434       .  S
Zr827       O839   2.437       .  S
Zr827       O840   2.422       .  S
Zr827       O833   2.393       .  S
Zr827       O834   2.376       .  S
Zr828       O830   2.434       .  S
Zr828       O852   2.435       .  S
Zr828       O854   2.414       .  S
Zr828       O832   2.374   1_455  S
Zr828       O835   2.371   1_455  S
Zr829       O855   2.437       .  S
Zr829       O856   2.435       .  S
Zr829       O831   2.436       .  S
Zr829       O832   2.411       .  S
Zr829       O833   2.402       .  S
O830        H867   0.991       .  S
O831        H862   0.990       .  S
O831        H876   0.990       .  S
O833        H859   0.966       .  S
O834       Zr844   2.379   1_655  S
O835       Zr844   2.374   1_655  S
O835        H860   0.965       .  S
C836       C1141   1.454       .  S
C837       C1757   1.494       .  S
C838       C1376   1.509       .  S
O839        H875   0.990       .  S
O840        C842   1.282       .  A
O841        C842   1.286       .  A
C842       C1855   1.469       .  S
O843       Zr844   2.436       .  S
O843        H872   0.990       .  S
Zr844       O847   2.437   1_455  S
Zr844       O848   2.440       .  S
Zr844       O849   2.392   1_455  S
O845        C850   1.285       .  A
O846        H863   0.990       .  S
O846        H878   0.990       .  S
O847        H864   0.990       .  S
O848        H868   0.990       .  S
O848        H877   0.990       .  S
O849        C850   1.276       .  A
C850       C2205   1.451       .  S
O851        H870   0.990       .  S
O851        H874   0.990       .  S
O852        H866   0.990       .  S
O852        H873   0.990       .  S
O853        C857   1.290       .  A
O854        C857   1.281   1_455  A
O855        H865   0.990   1_655  S
O856        H869   0.990       .  S
C857       C1127   1.502       .  S
Zr880       O881   2.436       .  S
Zr880       O882   2.448       .  S
Zr880       O883   2.509       .  S
Zr880       O886   2.485   1_455  S
Zr880       O888   2.382       .  S
Zr880       O889   2.389   1_455  S
Zr880       O890   2.417       .  S
Zr880       O891   2.428       .  S
O881        H937   0.990       .  S
O881        H945   0.990       .  S
O882        C902   1.288       .  A
O883        C904   1.299       .  A
O884       Zr894   2.390       .  S
O884        C903   1.278       .  A
O885       Zr893   2.380   1_556  S
O885        C904   1.275       .  A
O886        C903   1.295       .  A
O887       Zr895   2.468       .  S
O887        C902   1.292   1_655  A
O888       Zr893   2.381   1_556  S
O888       Zr895   2.371   1_455  S
O889       Zr894   2.380       .  S
O889       Zr895   2.361       .  S
O889        H924   0.965       .  S
O890       Zr893   2.384   1_556  S
O890       Zr910   2.410       .  S
O890        H927   0.966       .  S
O891       Zr894   2.389   1_455  S
O891       Zr910   2.411       .  S
Zr892       O917   2.437       .  S
Zr892       O911   2.454       .  S
Zr892       O919   2.475       .  S
Zr892       O907   2.476   1_655  S
Zr892       O898   2.417   1_554  S
Zr892       O899   2.427   1_655  S
Zr892       O900   2.378   1_655  S
Zr892       O901   2.383   1_554  S
Zr893       O912   2.439       .  S
Zr893       O905   2.438       .  S
Zr893       O906   2.370       .  S
Zr893       O899   2.385       .  S
Zr893       O900   2.374       .  S
Zr894       O896   2.436       .  S
Zr894       O918   2.438       .  S
Zr894       O920   2.396       .  S
Zr894       O898   2.380       .  S
Zr894       O901   2.380       .  S
Zr895       O921   2.437       .  S
Zr895       O922   2.434   1_556  S
Zr895       O897   2.437   1_656  S
Zr895       O898   2.412       .  S
Zr895       O899   2.414   1_656  S
O896        H933   0.990       .  S
O897        H928   0.990       .  S
O897        H942   0.990       .  S
O899        H925   0.966       .  S
O900       Zr910   2.361   1_554  S
O901       Zr910   2.369   1_655  S
O901        H926   0.966       .  S
C902       C1491   1.514       .  S
C903       C2219   1.496       .  S
C904       C1281   1.498       .  S
O905        H941   0.991       .  S
O906        C908   1.275       .  A
O907        C908   1.291       .  A
C908       C1110   1.487       .  S
O909       Zr910   2.437       .  S
O909        H938   0.990       .  S
Zr910       O913   2.438       .  S
Zr910       O914   2.438   1_455  S
Zr910       O915   2.469   1_556  S
O911        C916   1.288       .  A
O912        H929   0.990       .  S
O912        H944   0.990       .  S
O913        H930   0.990   1_556  S
O914        H934   0.990       .  S
O914        H943   0.990       .  S
O915        C916   1.291   1_455  A
C916       C1698   1.500       .  S
O917        H936   0.990       .  S
O917        H940   0.990       .  S
O918        H932   0.990       .  S
O918        H939   0.989       .  S
O919        C923   1.293       .  A
O920        C923   1.277   1_556  A
O921        H931   0.990       .  S
O922        H935   0.990       .  S
C923       C2065   1.476       .  S
C946       C1113   1.572       .  S
C946       C1138   1.566       .  S
C946       C1306   1.560       .  S
C946       C1670   1.561       .  S
Zr947       O948   2.438       .  S
Zr947       O949   2.405       .  S
Zr947       O950   2.442       .  S
Zr947       O953   2.440       .  S
Zr947       O955   2.383       .  S
Zr947       O956   2.378       .  S
Zr947       O957   2.400       .  S
Zr947       O958   2.398       .  S
O948       H1004   0.990       .  S
O948       H1012   0.991       .  S
O949        C969   1.281       .  A
O950        C971   1.285       .  A
O951       Zr961   2.420       .  S
O951        C970   1.281       .  A
O952       Zr960   2.434       .  S
O952        C971   1.283       .  A
O953        C970   1.286       .  A
O954       Zr962   2.419       .  S
O954        C969   1.280       .  A
O955       Zr960   2.376       .  S
O955       Zr962   2.382       .  S
O956       Zr961   2.365       .  S
O956       Zr962   2.370       .  S
O956        H991   0.965       .  S
O957       Zr960   2.387       .  S
O957       Zr977   2.393       .  S
O957        H994   0.966       .  S
O958       Zr961   2.380       .  S
O958       Zr977   2.398       .  S
Zr959       O984   2.439       .  S
Zr959       O978   2.412       .  S
Zr959       O986   2.503       .  S
Zr959       O974   2.503       .  S
Zr959       O965   2.405       .  S
Zr959       O966   2.414       .  S
Zr959       O967   2.388       .  S
Zr959       O968   2.396       .  S
Zr960       O979   2.439       .  S
Zr960       O972   2.436       .  S
Zr960       O973   2.399       .  S
Zr960       O966   2.403       .  S
Zr960       O967   2.390       .  S
Zr961       O963   2.435       .  S
Zr961       O985   2.439       .  S
Zr961       O987   2.376       .  S
Zr961       O965   2.398       .  S
Zr961       O968   2.381       .  S
Zr962       O988   2.437       .  S
Zr962       O989   2.435       .  S
Zr962       O964   2.437       .  S
Zr962       O965   2.390       .  S
Zr962       O966   2.399       .  S
O963       H1000   0.990       .  S
O964        H995   0.990       .  S
O964       H1009   0.990       .  S
O966        H992   0.966       .  S
O967       Zr977   2.373       .  S
O968       Zr977   2.374       .  S
O968        H993   0.966       .  S
C969       C1799   1.452       .  S
C970       C2037   1.473       .  S
C971       C1841   1.474       .  S
O972       H1008   0.990       .  S
O973        C975   1.280       .  A
O974        C975   1.298       .  A
C975       C1561   1.495       .  S
O976       Zr977   2.438       .  S
O976       H1005   0.990       .  S
Zr977       O980   2.438       .  S
Zr977       O981   2.439       .  S
Zr977       O982   2.420       .  S
O978        C983   1.280       .  A
O979        H996   0.990       .  S
O979       H1011   0.990       .  S
O980        H997   0.990       .  S
O981       H1001   0.990       .  S
O981       H1010   0.990       .  S
O982        C983   1.281       .  A
C983       C1911   1.454       .  S
O984       H1003   0.990       .  S
O984       H1007   0.990       .  S
O985        H999   0.990       .  S
O985       H1006   0.990       .  S
O986        C990   1.297       .  A
O987        C990   1.276       .  A
O988        H998   0.990       .  S
O989       H1002   0.990       .  S
C990       C1740   1.496       .  S
C1013      C1096   1.570   1_655  S
C1013      C1124   1.581       .  S
C1013      C1222   1.580       .  S
C1013      C2415   1.580       .  S
Zr1014     O1015   2.437       .  S
Zr1014     O1016   2.442       .  S
Zr1014     O1017   2.512       .  S
Zr1014     O1020   2.442       .  S
Zr1014     O1022   2.375       .  S
Zr1014     O1023   2.409       .  S
Zr1014     O1024   2.401       .  S
Zr1014     O1025   2.425       .  S
O1015      H1071   0.990       .  S
O1015      H1079   0.990       .  S
O1016      C1036   1.286       .  A
O1017      C1038   1.298       .  A
O1018     Zr1028   2.406       .  S
O1018      C1037   1.279       .  A
O1019     Zr1027   2.389       .  S
O1019      C1038   1.277       .  A
O1020      C1037   1.285       .  A
O1021     Zr1029   2.452       .  S
O1021      C1036   1.287       .  A
O1022     Zr1027   2.375       .  S
O1022     Zr1029   2.381       .  S
O1023     Zr1028   2.403       .  S
O1023     Zr1029   2.362       .  S
O1023      H1058   0.965       .  S
O1024     Zr1027   2.376       .  S
O1024     Zr1044   2.398       .  S
O1024      H1061   0.965       .  S
O1025     Zr1028   2.398       .  S
O1025     Zr1044   2.391       .  S
Zr1026     O1051   2.439       .  S
Zr1026     O1045   2.449       .  S
Zr1026     O1053   2.493       .  S
Zr1026     O1041   2.461       .  S
Zr1026     O1032   2.404       .  S
Zr1026     O1033   2.422       .  S
Zr1026     O1034   2.385       .  S
Zr1026     O1035   2.382       .  S
Zr1027     O1046   2.437       .  S
Zr1027     O1039   2.436       .  S
Zr1027     O1040   2.347       .  S
Zr1027     O1033   2.394       .  S
Zr1027     O1034   2.382       .  S
Zr1028     O1030   2.435       .  S
Zr1028     O1052   2.435       .  S
Zr1028     O1054   2.448       .  S
Zr1028     O1032   2.384       .  S
Zr1028     O1035   2.374       .  S
Zr1029     O1055   2.437       .  S
Zr1029     O1056   2.435       .  S
Zr1029     O1031   2.437       .  S
Zr1029     O1032   2.406       .  S
Zr1029     O1033   2.401       .  S
O1030      H1067   0.990       .  S
O1031      H1062   0.990       .  S
O1031      H1076   0.990       .  S
O1033      H1059   0.966       .  S
O1034     Zr1044   2.373       .  S
O1035     Zr1044   2.385       .  S
O1035      H1060   0.966       .  S
C1036      C1099   1.484       .  S
C1037      C1967   1.457       .  S
C1038      C1729   1.508       .  S
O1039      H1075   0.990       .  S
O1040      C1042   1.269       .  A
O1041      C1042   1.289       .  A
C1042      C1869   1.453       .  S
O1043     Zr1044   2.439       .  S
O1043      H1072   0.990       .  S
Zr1044     O1047   2.438       .  S
Zr1044     O1048   2.437       .  S
Zr1044     O1049   2.424       .  S
O1045      C1050   1.288       .  A
O1046      H1063   0.990       .  S
O1046      H1078   0.990       .  S
O1047      H1064   0.990       .  S
O1048      H1068   0.990       .  S
O1048      H1077   0.990       .  S
O1049      C1050   1.282       .  A
C1050      C1085   1.474       .  S
O1051      H1070   0.990       .  S
O1051      H1074   0.990       .  S
O1052      H1066   0.990       .  S
O1052      H1073   0.988       .  S
O1053      C1057   1.295       .  A
O1054      C1057   1.287       .  A
O1055      H1065   0.990       .  S
O1056      H1069   0.990       .  S
C1057      C1603   1.509       .  S
C1080      C1082   1.567       .  S
C1080      C1155   1.564       .  S
C1080      C1183   1.583       .  S
C1080      C2373   1.578       .  S
C1081      C1082   1.416       .  A
C1081      C1086   1.403       .  A
C1081      H1088   1.079       .  S
C1082      C1083   1.425       .  A
C1083      C1084   1.406       .  A
C1083      N1090   1.430       .  S
C1084      C1085   1.398       .  A
C1084      H1089   1.084       .  S
C1085      C1086   1.412       .  A
C1086      N1087   1.439       .  S
N1087      H1091   1.046       .  S
N1087      H1092   1.043       .  S
N1090      H1093   1.046       .  S
N1090      H1094   1.045       .  S
C1095      C1096   1.417       .  A
C1095      C1100   1.411       .  A
C1095      H1102   1.077       .  S
C1096      C1097   1.429       .  A
C1097      C1098   1.408       .  A
C1097      N1104   1.432       .  S
C1098      C1099   1.398       .  A
C1098      H1103   1.084       .  S
C1099      C1100   1.407       .  A
C1100      N1101   1.437       .  S
N1101      H1105   1.046       .  S
N1101      H1106   1.045       .  S
N1104      H1107   1.046       .  S
N1104      H1108   1.045       .  S
C1109      C1110   1.404       .  A
C1109      C1114   1.391       .  A
C1109      H1116   1.085       .  S
C1110      C1111   1.407       .  A
C1111      C1112   1.409       .  A
C1111      N1118   1.431       .  S
C1112      C1113   1.424       .  A
C1112      H1117   1.078       .  S
C1113      C1114   1.422       .  A
C1114      N1115   1.433       .  S
N1115      H1119   1.046       .  S
N1115      H1120   1.046       .  S
N1118      H1121   1.045   1_455  S
N1118      H1122   1.046   1_455  S
C1123      C1124   1.423       .  A
C1123      C1128   1.414       .  A
C1123      H1130   1.077       .  S
C1124      C1125   1.422   1_655  A
C1125      C1126   1.402       .  A
C1125      N1132   1.432       .  S
C1126      C1127   1.407   1_455  A
C1126      H1131   1.084       .  S
C1127      C1128   1.412       .  A
C1128      N1129   1.438       .  S
N1129      H1133   1.045       .  S
N1129      H1134   1.045       .  S
N1132      H1135   1.045       .  S
N1132      H1136   1.046       .  S
C1137      C1138   1.417       .  A
C1137      C1142   1.380       .  A
C1137      H1144   1.080       .  S
C1138      C1139   1.436       .  A
C1139      C1140   1.404       .  A
C1139      N1146   1.438       .  S
C1140      C1141   1.396       .  A
C1140      H1145   1.084       .  S
C1141      C1142   1.405       .  A
C1142      N1143   1.439       .  S
N1143      H1147   1.044       .  S
N1143      H1148   1.040       .  S
N1146      H1149   1.036       .  S
N1146      H1150   1.046       .  S
C1151      C1152   1.392       .  A
C1151      C1156   1.402       .  A
C1151      H1158   1.084       .  S
C1152      C1153   1.420       .  A
C1153      C1154   1.398       .  A
C1153      N1160   1.439       .  S
C1154      C1155   1.408       .  A
C1154      H1159   1.083       .  S
C1155      C1156   1.438       .  A
C1156      N1157   1.431       .  S
N1157      H1161   1.046       .  S
N1157      H1162   1.046       .  S
N1160      H1163   1.045       .  S
N1160      H1164   1.046       .  S
C1165      C1166   1.416       .  A
C1165      C1170   1.401       .  A
C1165      H1172   1.078       .  S
C1166      C1167   1.426       .  A
C1167      C1168   1.391       .  A
C1167      N1174   1.434       .  S
C1168      C1169   1.394       .  A
C1168      H1173   1.085       .  S
C1169      C1170   1.411       .  A
C1170      N1171   1.439       .  S
N1171      H1175   1.046       .  S
N1171      H1176   1.044   1_554  S
N1174      H1177   1.046       .  S
N1174      H1178   1.046       .  S
C1179      C1180   1.410       .  A
C1179      C1184   1.396       .  A
C1179      H1186   1.083       .  S
C1180      C1181   1.408       .  A
C1181      C1182   1.412       .  A
C1181      N1188   1.438       .  S
C1182      C1183   1.426       .  A
C1182      H1187   1.077       .  S
C1183      C1184   1.419       .  A
C1184      N1185   1.432       .  S
N1185      H1189   1.046       .  S
N1185      H1190   1.046       .  S
N1188      H1191   1.045       .  S
N1188      H1192   1.046       .  S
C1193      C1194   1.431       .  A
C1193      C1198   1.411       .  A
C1193      H1200   1.080       .  S
C1194      C1195   1.414       .  A
C1195      C1196   1.403       .  A
C1195      N1202   1.430       .  S
C1196      C1197   1.417       .  A
C1196      H1201   1.083       .  S
C1197      C1198   1.410       .  A
C1198      N1199   1.432       .  S
N1199      H1203   1.045       .  S
N1199      H1204   1.045       .  S
N1202      H1205   1.046       .  S
N1202      H1206   1.046       .  S
C1207      C1208   1.410       .  A
C1207      C1212   1.411       .  A
C1207      H1214   1.083       .  S
C1208      C1209   1.415       .  A
C1209      C1210   1.418       .  A
C1209      N1216   1.431   1_545  S
C1210      C1211   1.424       .  A
C1210      H1215   1.079       .  S
C1211      C1212   1.428       .  A
C1212      N1213   1.440       .  S
N1213      H1217   1.045       .  S
N1213      H1218   1.043       .  S
N1216      H1219   1.045       .  S
N1216      H1220   1.045       .  S
C1221      C1222   1.421       .  A
C1221      C1226   1.407       .  A
C1221      H1228   1.084       .  S
C1222      C1223   1.435   1_655  A
C1223      C1224   1.401       .  A
C1223      N1230   1.432       .  S
C1224      C1225   1.393   1_455  A
C1224      H1229   1.085       .  S
C1225      C1226   1.412       .  A
C1226      N1227   1.438       .  S
N1227      H1231   1.046       .  S
N1227      H1232   1.043       .  S
N1230      H1233   1.046       .  S
N1230      H1234   1.046       .  S
C1235      C1236   1.405       .  A
C1235      C1240   1.406       .  A
C1235      H1242   1.084       .  S
C1236      C1237   1.411       .  A
C1237      C1238   1.400       .  A
C1237      N1244   1.431       .  S
C1238      C1239   1.423       .  A
C1238      H1243   1.079       .  S
C1239      C1240   1.423       .  A
C1240      N1241   1.431       .  S
N1241      H1245   1.046       .  S
N1241      H1246   1.046       .  S
N1244      H1247   1.044       .  S
N1244      H1248   1.045       .  S
C1249      C1250   1.399       .  A
C1249      C1254   1.404       .  A
C1249      H1256   1.084       .  S
C1250      C1251   1.409       .  A
C1251      C1252   1.389       .  A
C1251      N1258   1.433       .  S
C1252      C1253   1.417       .  A
C1252      H1257   1.084       .  S
C1253      C1254   1.430       .  A
C1254      N1255   1.431       .  S
N1255      H1259   1.045   1_545  S
N1255      H1260   1.046       .  S
N1258      H1261   1.043       .  S
N1258      H1262   1.045       .  S
C1263      C1264   1.419   1_545  A
C1263      C1268   1.393       .  A
C1263      H1270   1.078       .  S
C1264      C1265   1.423       .  A
C1265      C1266   1.408       .  A
C1265      N1272   1.433       .  S
C1266      C1267   1.401       .  A
C1266      H1271   1.084       .  S
C1267      C1268   1.398   1_565  A
C1268      N1269   1.440       .  S
N1269      H1273   1.046       .  S
N1269      H1274   1.045       .  S
N1272      H1275   1.045       .  S
N1272      H1276   1.045       .  S
C1277      C1278   1.410       .  A
C1277      C1282   1.400       .  A
C1277      H1284   1.078   1_556  S
C1278      C1279   1.432       .  A
C1279      C1280   1.418       .  A
C1279      N1286   1.432       .  S
C1280      C1281   1.401       .  A
C1280      H1285   1.083       .  S
C1281      C1282   1.416       .  A
C1282      N1283   1.434   1_556  S
N1283      H1287   1.046       .  S
N1283      H1288   1.046       .  S
N1286      H1289   1.045       .  S
N1286      H1290   1.046       .  S
C1291      C1292   1.414       .  A
C1291      C1296   1.395       .  A
C1291      H1298   1.078       .  S
C1292      C1293   1.437       .  A
C1293      C1294   1.411       .  A
C1293      N1300   1.433   1_556  S
C1294      C1295   1.401       .  A
C1294      H1299   1.084   1_556  S
C1295      C1296   1.407       .  A
C1296      N1297   1.430       .  S
N1297      H1301   1.045       .  S
N1297      H1302   1.038       .  S
N1300      H1303   1.042       .  S
N1300      H1304   1.043       .  S
C1305      C1306   1.417       .  A
C1305      C1310   1.399       .  A
C1305      H1312   1.079       .  S
C1306      C1307   1.427       .  A
C1307      C1308   1.394       .  A
C1307      N1314   1.431       .  S
C1308      C1309   1.392       .  A
C1308      H1313   1.085       .  S
C1309      C1310   1.403       .  A
C1310      N1311   1.433       .  S
N1311      H1315   1.046       .  S
N1311      H1316   1.046       .  S
N1314      H1317   1.046       .  S
N1314      H1318   1.046       .  S
C1319      C1320   1.403       .  A
C1319      C1324   1.404       .  A
C1319      H1326   1.084       .  S
C1320      C1321   1.422       .  A
C1321      C1322   1.418       .  A
C1321      N1328   1.432       .  S
C1322      C1323   1.419       .  A
C1322      H1327   1.080       .  S
C1323      C1324   1.427       .  A
C1324      N1325   1.433       .  S
N1325      H1329   1.046       .  S
N1325      H1330   1.046       .  S
N1328      H1331   1.046       .  S
N1328      H1332   1.045       .  S
C1333      C1334   1.413       .  A
C1333      C1338   1.413       .  A
C1333      H1340   1.078       .  S
C1334      C1335   1.436       .  A
C1335      C1336   1.395       .  A
C1335      N1342   1.433       .  S
C1336      C1337   1.389       .  A
C1336      H1341   1.085       .  S
C1337      C1338   1.420       .  A
C1338      N1339   1.437       .  S
N1339      H1343   1.046       .  S
N1339      H1344   1.044       .  S
N1342      H1345   1.046       .  S
N1342      H1346   1.046       .  S
C1347      C1348   1.401       .  A
C1347      C1352   1.383       .  A
C1347      H1354   1.084       .  S
C1348      C1349   1.406       .  A
C1349      C1350   1.405       .  A
C1349      N1356   1.437       .  S
C1350      C1351   1.419       .  A
C1350      H1355   1.078       .  S
C1351      C1352   1.419       .  A
C1352      N1353   1.433       .  S
N1353      H1357   1.046       .  S
N1353      H1358   1.046       .  S
N1356      H1359   1.046       .  S
N1356      H1360   1.045       .  S
C1361      C1362   1.420       .  A
C1361      C1366   1.413   1_556  A
C1361      H1368   1.082       .  S
C1362      C1363   1.430   1_556  A
C1363      C1364   1.413       .  A
C1363      N1370   1.431       .  S
C1364      C1365   1.402       .  A
C1364      H1369   1.084       .  S
C1365      C1366   1.413       .  A
C1366      N1367   1.438       .  S
N1367      H1371   1.046       .  S
N1367      H1372   1.045       .  S
N1370      H1373   1.046       .  S
N1370      H1374   1.046       .  S
C1375      C1376   1.410   1_655  A
C1375      C1380   1.408       .  A
C1375      H1382   1.084       .  S
C1376      C1377   1.410       .  A
C1377      C1378   1.416       .  A
C1377      N1384   1.437       .  S
C1378      C1379   1.423       .  A
C1378      H1383   1.081       .  S
C1379      C1380   1.426   1_455  A
C1380      N1381   1.433       .  S
N1381      H1385   1.046       .  S
N1381      H1386   1.046       .  S
N1384      H1387   1.045       .  S
N1384      H1388   1.046       .  S
C1389      C1390   1.414   1_655  A
C1389      C1394   1.406       .  A
C1389      H1396   1.080       .  S
C1390      C1391   1.425       .  A
C1391      C1392   1.403       .  A
C1391      N1398   1.433       .  S
C1392      C1393   1.399       .  A
C1392      H1397   1.078       .  S
C1393      C1394   1.410   1_455  A
C1394      N1395   1.438       .  S
N1395      H1399   1.045       .  S
N1395      H1400   1.045       .  S
N1398      H1401   1.046       .  S
N1398      H1402   1.046       .  S
C1403      C1404   1.399       .  A
C1403      C1408   1.414       .  A
C1403      H1410   1.084       .  S
C1404      C1405   1.415       .  A
C1405      C1406   1.398       .  A
C1405      N1412   1.439       .  S
C1406      C1407   1.409       .  A
C1406      H1411   1.079       .  S
C1407      C1408   1.430       .  A
C1408      N1409   1.428       .  S
N1409      H1413   1.046       .  S
N1409      H1414   1.046       .  S
N1412      H1415   1.046       .  S
N1412      H1416   1.046       .  S
C1417      C1418   1.412   1_565  A
C1417      C1422   1.382   1_565  A
C1417      H1424   1.084       .  S
C1418      C1419   1.431       .  A
C1419      C1420   1.397       .  A
C1419      N1426   1.432       .  S
C1420      C1421   1.397       .  A
C1420      H1425   1.084       .  S
C1421      C1422   1.412       .  A
C1422      N1423   1.434   1_545  S
N1423      H1427   1.045       .  S
N1423      H1428   1.046   1_565  S
N1426      H1429   1.046       .  S
N1426      H1430   1.045       .  S
C1431      C1432   1.419       .  A
C1431      C1436   1.389       .  A
C1431      H1438   1.076       .  S
C1432      C1433   1.423   1_545  A
C1433      C1434   1.395       .  A
C1433      N1440   1.434       .  S
C1434      C1435   1.394   1_565  A
C1434      H1439   1.085       .  S
C1435      C1436   1.393       .  A
C1436      N1437   1.440       .  S
N1437      H1441   1.046       .  S
N1437      H1442   1.046       .  S
N1440      H1443   1.046       .  S
N1440      H1444   1.045       .  S
C1445      C1446   1.416       .  A
C1445      C1450   1.401       .  A
C1445      H1452   1.078       .  S
C1446      C1447   1.426       .  A
C1447      C1448   1.387       .  A
C1447      N1454   1.432       .  S
C1448      C1449   1.393       .  A
C1448      H1453   1.085       .  S
C1449      C1450   1.404       .  A
C1450      N1451   1.438       .  S
N1451      H1455   1.046       .  S
N1451      H1456   1.046       .  S
N1454      H1457   1.046       .  S
N1454      H1458   1.046       .  S
C1459      C1460   1.395       .  A
C1459      C1464   1.405       .  A
C1459      H1466   1.085       .  S
C1460      C1461   1.410       .  A
C1461      C1462   1.407       .  A
C1461      N1468   1.438       .  S
C1462      C1463   1.421       .  A
C1462      H1467   1.083       .  S
C1463      C1464   1.445       .  A
C1464      N1465   1.437       .  S
N1465      H1469   1.045       .  S
N1465      H1470   1.035       .  S
N1468      H1471   1.044       .  S
N1468      H1472   1.046       .  S
C1473      C1474   1.419       .  A
C1473      C1478   1.424       .  A
C1473      H1480   1.083       .  S
C1474      C1475   1.446       .  A
C1475      C1476   1.398       .  A
C1475      N1482   1.435       .  S
C1476      C1477   1.388       .  A
C1476      H1481   1.086       .  S
C1477      C1478   1.418       .  A
C1478      N1479   1.436       .  S
N1479      H1483   1.046       .  S
N1479      H1484   1.045       .  S
N1482      H1485   1.046       .  S
N1482      H1486   1.046       .  S
C1487      C1488   1.419       .  A
C1487      C1492   1.417       .  A
C1487      H1494   1.078       .  S
C1488      C1489   1.428   1_455  A
C1489      C1490   1.411       .  A
C1489      N1496   1.432       .  S
C1490      C1491   1.406   1_655  A
C1490      H1495   1.083       .  S
C1491      C1492   1.419       .  A
C1492      N1493   1.438       .  S
N1493      H1497   1.046       .  S
N1493      H1498   1.046       .  S
N1496      H1499   1.046       .  S
N1496      H1500   1.045       .  S
C1501      C1502   1.396       .  A
C1501      C1506   1.411       .  A
C1501      H1508   1.084       .  S
C1502      C1503   1.403       .  A
C1503      C1504   1.410       .  A
C1503      N1510   1.437       .  S
C1504      C1505   1.424       .  A
C1504      H1509   1.082       .  S
C1505      C1506   1.436       .  A
C1506      N1507   1.431       .  S
N1507      H1511   1.045       .  S
N1507      H1512   1.046       .  S
N1510      H1513   1.046       .  S
N1510      H1514   1.045       .  S
C1515      C1516   1.434       .  A
C1515      C1520   1.417       .  A
C1515      H1522   1.078       .  S
C1516      C1517   1.432       .  A
C1517      C1518   1.396       .  A
C1517      N1524   1.439       .  S
C1518      C1519   1.398       .  A
C1518      H1523   1.072       .  S
C1519      C1520   1.410       .  A
C1520      N1521   1.437       .  S
N1521      H1525   1.045       .  S
N1521      H1526   1.043       .  S
N1524      H1527   1.031       .  S
N1524      H1528   1.046       .  S
C1529      C1530   1.409       .  A
C1529      C1534   1.419       .  A
C1529      H1536   1.083       .  S
C1530      C1531   1.426       .  A
C1531      C1532   1.387       .  A
C1531      N1538   1.429       .  S
C1532      C1533   1.407       .  A
C1532      H1537   1.080       .  S
C1533      C1534   1.426       .  A
C1534      N1535   1.432       .  S
N1535      H1539   1.046       .  S
N1535      H1540   1.045       .  S
N1538      H1541   1.045       .  S
N1538      H1542   1.043       .  S
C1543      C1544   1.402       .  A
C1543      C1548   1.408       .  A
C1543      H1550   1.085       .  S
C1544      C1545   1.417       .  A
C1545      C1546   1.420       .  A
C1545      N1552   1.436       .  S
C1546      C1547   1.425       .  A
C1546      H1551   1.083       .  S
C1547      C1548   1.435       .  A
C1548      N1549   1.432       .  S
N1549      H1553   1.046       .  S
N1549      H1554   1.046       .  S
N1552      H1555   1.042       .  S
N1552      H1556   1.045       .  S
C1557      C1558   1.417       .  A
C1557      C1562   1.403       .  A
C1557      H1564   1.077       .  S
C1558      C1559   1.430       .  A
C1559      C1560   1.420       .  A
C1559      N1566   1.432       .  S
C1560      C1561   1.403       .  A
C1560      H1565   1.083       .  S
C1561      C1562   1.410       .  A
C1562      N1563   1.440       .  S
N1563      H1567   1.045       .  S
N1563      H1568   1.046       .  S
N1566      H1569   1.046       .  S
N1566      H1570   1.046       .  S
C1571      C1572   1.416       .  A
C1571      C1576   1.410       .  A
C1571      H1578   1.079       .  S
C1572      C1573   1.435       .  A
C1573      C1574   1.407       .  A
C1573      N1580   1.432       .  S
C1574      C1575   1.394       .  A
C1574      H1579   1.084       .  S
C1575      C1576   1.418       .  A
C1576      N1577   1.438       .  S
N1577      H1581   1.046       .  S
N1577      H1582   1.044       .  S
N1580      H1583   1.046       .  S
N1580      H1584   1.046       .  S
C1585      C1586   1.407       .  A
C1585      C1590   1.389       .  A
C1585      H1592   1.076       .  S
C1586      C1587   1.432       .  A
C1587      C1588   1.405       .  A
C1587      N1594   1.432       .  S
C1588      C1589   1.395       .  A
C1588      H1593   1.084       .  S
C1589      C1590   1.407       .  A
C1590      N1591   1.433       .  S
N1591      H1595   1.045       .  S
N1591      H1596   1.046       .  S
N1594      H1597   1.046       .  S
N1594      H1598   1.045       .  S
C1599      C1600   1.421       .  A
C1599      C1604   1.419       .  A
C1599      H1606   1.080       .  S
C1600      C1601   1.429       .  A
C1601      C1602   1.416       .  A
C1601      N1608   1.431       .  S
C1602      C1603   1.403       .  A
C1602      H1607   1.084       .  S
C1603      C1604   1.419       .  A
C1604      N1605   1.438       .  S
N1605      H1609   1.046       .  S
N1605      H1610   1.044       .  S
N1608      H1611   1.045       .  S
N1608      H1612   1.046       .  S
C1613      C1614   1.420   1_554  A
C1613      C1618   1.408       .  A
C1613      H1620   1.076       .  S
C1614      C1615   1.431       .  A
C1615      C1616   1.414       .  A
C1615      N1622   1.433       .  S
C1616      C1617   1.403   1_556  A
C1616      H1621   1.084       .  S
C1617      C1618   1.407       .  A
C1618      N1619   1.432       .  S
N1619      H1623   1.046       .  S
N1619      H1624   1.046       .  S
N1622      H1625   1.046       .  S
N1622      H1626   1.046       .  S
C1627      C1628   1.393       .  A
C1627      C1632   1.398   1_556  A
C1627      H1634   1.085   1_556  S
C1628      C1629   1.407       .  A
C1629      C1630   1.402       .  A
C1629      N1636   1.439       .  S
C1630      C1631   1.421       .  A
C1630      H1635   1.078       .  S
C1631      C1632   1.439   1_556  A
C1632      N1633   1.433       .  S
N1633      H1637   1.043       .  S
N1633      H1638   1.041       .  S
N1636      H1639   1.044       .  S
N1636      H1640   1.046       .  S
C1641      C1642   1.415       .  A
C1641      C1646   1.410       .  A
C1641      H1648   1.084       .  S
C1642      C1643   1.437       .  A
C1643      C1644   1.414       .  A
C1643      N1650   1.432       .  S
C1644      C1645   1.402       .  A
C1644      H1649   1.084       .  S
C1645      C1646   1.422       .  A
C1646      N1647   1.431       .  S
N1647      H1651   1.044       .  S
N1647      H1652   1.045       .  S
N1650      H1653   1.046       .  S
N1650      H1654   1.045       .  S
C1655      C1656   1.395       .  A
C1655      C1660   1.400       .  A
C1655      H1662   1.084       .  S
C1656      C1657   1.402       .  A
C1657      C1658   1.399       .  A
C1657      N1664   1.440       .  S
C1658      C1659   1.418       .  A
C1658      H1663   1.078       .  S
C1659      C1660   1.424       .  A
C1660      N1661   1.433       .  S
N1661      H1665   1.046       .  S
N1661      H1666   1.046       .  S
N1664      H1667   1.045       .  S
N1664      H1668   1.046       .  S
C1669      C1670   1.425       .  A
C1669      C1674   1.397       .  A
C1669      H1676   1.078       .  S
C1670      C1671   1.419       .  A
C1671      C1672   1.387       .  A
C1671      N1678   1.434       .  S
C1672      C1673   1.397       .  A
C1672      H1677   1.084       .  S
C1673      C1674   1.403       .  A
C1674      N1675   1.439       .  S
N1675      H1679   1.046       .  S
N1675      H1680   1.043       .  S
N1678      H1681   1.046       .  S
N1678      H1682   1.046       .  S
C1683      C1684   1.429       .  A
C1683      C1688   1.419       .  A
C1683      H1690   1.078       .  S
C1684      C1685   1.420       .  A
C1685      C1686   1.406       .  A
C1685      N1692   1.432       .  S
C1686      C1687   1.412       .  A
C1686      H1691   1.084       .  S
C1687      C1688   1.408       .  A
C1688      N1689   1.437       .  S
N1689      H1693   1.045       .  S
N1689      H1694   1.046       .  S
N1692      H1695   1.045       .  S
N1692      H1696   1.046       .  S
C1697      C1698   1.402       .  A
C1697      C1702   1.414       .  A
C1697      H1704   1.084       .  S
C1698      C1699   1.414   1_655  A
C1699      C1700   1.410       .  A
C1699      N1706   1.440       .  S
C1700      C1701   1.425   1_455  A
C1700      H1705   1.077       .  S
C1701      C1702   1.440       .  A
C1702      N1703   1.434       .  S
N1703      H1707   1.042       .  S
N1703      H1708   1.041       .  S
N1706      H1709   1.043       .  S
N1706      H1710   1.046       .  S
C1711      C1712   1.421       .  A
C1711      C1716   1.412       .  A
C1711      H1718   1.077       .  S
C1712      C1713   1.427   1_655  A
C1713      C1714   1.402       .  A
C1713      N1720   1.432       .  S
C1714      C1715   1.402   1_455  A
C1714      H1719   1.084       .  S
C1715      C1716   1.417       .  A
C1716      N1717   1.433       .  S
N1717      H1721   1.045       .  S
N1717      H1722   1.045       .  S
N1720      H1723   1.046       .  S
N1720      H1724   1.046       .  S
C1725      C1726   1.426       .  A
C1725      C1730   1.425       .  A
C1725      H1732   1.076       .  S
C1726      C1727   1.429       .  A
C1727      C1728   1.400       .  A
C1727      N1734   1.435       .  S
C1728      C1729   1.406       .  A
C1728      H1733   1.084       .  S
C1729      C1730   1.411       .  A
C1730      N1731   1.437       .  S
N1731      H1735   1.045       .  S
N1731      H1736   1.046       .  S
N1734      H1737   1.046       .  S
N1734      H1738   1.046       .  S
C1739      C1740   1.405       .  A
C1739      C1744   1.397       .  A
C1739      H1746   1.085       .  S
C1740      C1741   1.411       .  A
C1741      C1742   1.415       .  A
C1741      N1748   1.431       .  S
C1742      C1743   1.425       .  A
C1742      H1747   1.078       .  S
C1743      C1744   1.422       .  A
C1744      N1745   1.434       .  S
N1745      H1749   1.046       .  S
N1745      H1750   1.046       .  S
N1748      H1751   1.045       .  S
N1748      H1752   1.045       .  S
C1753      C1754   1.414       .  A
C1753      C1758   1.391       .  A
C1753      H1760   1.073       .  S
C1754      C1755   1.432       .  A
C1755      C1756   1.425       .  A
C1755      N1762   1.431       .  S
C1756      C1757   1.405       .  A
C1756      H1761   1.082       .  S
C1757      C1758   1.406       .  A
C1758      N1759   1.435       .  S
N1759      H1763   1.045       .  S
N1759      H1764   1.046       .  S
N1762      H1765   1.046       .  S
N1762      H1766   1.045       .  S
C1767      C1768   1.417       .  A
C1767      C1772   1.420       .  A
C1767      H1774   1.083       .  S
C1768      C1769   1.438       .  A
C1769      C1770   1.411       .  A
C1769      N1776   1.432       .  S
C1770      C1771   1.401       .  A
C1770      H1775   1.084       .  S
C1771      C1772   1.417       .  A
C1772      N1773   1.437       .  S
N1773      H1777   1.046       .  S
N1773      H1778   1.046       .  S
N1776      H1779   1.046       .  S
N1776      H1780   1.046       .  S
C1781      C1782   1.415       .  A
C1781      C1786   1.407       .  A
C1781      H1788   1.079       .  S
C1782      C1783   1.427       .  A
C1783      C1784   1.385       .  A
C1783      N1790   1.432       .  S
C1784      C1785   1.390       .  A
C1784      H1789   1.085       .  S
C1785      C1786   1.407       .  A
C1786      N1787   1.437       .  S
N1787      H1791   1.046       .  S
N1787      H1792   1.046       .  S
N1790      H1793   1.046       .  S
N1790      H1794   1.046       .  S
C1795      C1796   1.415       .  A
C1795      C1800   1.406       .  A
C1795      H1802   1.083       .  S
C1796      C1797   1.439       .  A
C1797      C1798   1.386       .  A
C1797      N1804   1.436       .  S
C1798      C1799   1.383       .  A
C1798      H1803   1.085       .  S
C1799      C1800   1.403       .  A
C1800      N1801   1.437       .  S
N1801      H1805   1.046       .  S
N1801      H1806   1.042       .  S
N1804      H1807   1.046       .  S
N1804      H1808   1.046       .  S
C1809      C1810   1.420       .  A
C1809      C1814   1.378       .  A
C1809      H1816   1.083       .  S
C1810      C1811   1.422       .  A
C1811      C1812   1.401       .  A
C1811      N1818   1.431       .  S
C1812      C1813   1.400       .  A
C1812      H1817   1.084       .  S
C1813      C1814   1.403       .  A
C1814      N1815   1.435       .  S
N1815      H1819   1.045       .  S
N1815      H1820   1.046       .  S
N1818      H1821   1.045       .  S
N1818      H1822   1.045       .  S
C1823      C1824   1.414       .  A
C1823      C1828   1.409       .  A
C1823      H1830   1.079       .  S
C1824      C1825   1.426       .  A
C1825      C1826   1.418       .  A
C1825      N1832   1.432       .  S
C1826      C1827   1.405       .  A
C1826      H1831   1.083       .  S
C1827      C1828   1.420       .  A
C1828      N1829   1.439       .  S
N1829      H1833   1.046       .  S
N1829      H1834   1.046       .  S
N1832      H1835   1.045       .  S
N1832      H1836   1.046       .  S
C1837      C1838   1.428       .  A
C1837      C1842   1.408       .  A
C1837      H1844   1.078       .  S
C1838      C1839   1.443       .  A
C1839      C1840   1.406       .  A
C1839      N1846   1.435       .  S
C1840      C1841   1.393       .  A
C1840      H1845   1.085       .  S
C1841      C1842   1.397       .  A
C1842      N1843   1.438       .  S
N1843      H1847   1.045       .  S
N1843      H1848   1.046       .  S
N1846      H1849   1.028       .  S
N1846      H1850   1.046       .  S
C1851      C1852   1.419       .  A
C1851      C1856   1.403       .  A
C1851      H1858   1.083       .  S
C1852      C1853   1.438       .  A
C1853      C1854   1.401       .  A
C1853      N1860   1.433       .  S
C1854      C1855   1.392       .  A
C1854      H1859   1.085       .  S
C1855      C1856   1.409       .  A
C1856      N1857   1.438       .  S
N1857      H1861   1.046       .  S
N1857      H1862   1.044       .  S
N1860      H1863   1.046       .  S
N1860      H1864   1.046       .  S
C1865      C1866   1.423       .  A
C1865      C1870   1.391       .  A
C1865      H1872   1.083       .  S
C1866      C1867   1.422       .  A
C1867      C1868   1.401       .  A
C1867      N1874   1.430       .  S
C1868      C1869   1.402       .  A
C1868      H1873   1.085       .  S
C1869      C1870   1.404       .  A
C1870      N1871   1.440       .  S
N1871      H1875   1.046       .  S
N1871      H1876   1.044       .  S
N1874      H1877   1.046       .  S
N1874      H1878   1.045       .  S
C1879      C1880   1.416       .  A
C1879      C1884   1.404       .  A
C1879      H1886   1.081       .  S
C1880      C1881   1.428       .  A
C1881      C1882   1.394       .  A
C1881      N1888   1.434       .  S
C1882      C1883   1.404       .  A
C1882      H1887   1.084       .  S
C1883      C1884   1.416       .  A
C1884      N1885   1.432       .  S
N1885      H1889   1.045       .  S
N1885      H1890   1.045       .  S
N1888      H1891   1.046       .  S
N1888      H1892   1.046       .  S
C1893      C1894   1.418       .  A
C1893      C1898   1.395       .  A
C1893      H1900   1.079       .  S
C1894      C1895   1.424       .  A
C1895      C1896   1.387       .  A
C1895      N1902   1.432       .  S
C1896      C1897   1.390       .  A
C1896      H1901   1.079       .  S
C1897      C1898   1.408       .  A
C1898      N1899   1.433       .  S
N1899      H1903   1.044       .  S
N1899      H1904   1.046       .  S
N1902      H1905   1.044       .  S
N1902      H1906   1.046       .  S
C1907      C1908   1.416       .  A
C1907      C1912   1.396       .  A
C1907      H1914   1.080       .  S
C1908      C1909   1.427       .  A
C1909      C1910   1.396       .  A
C1909      N1916   1.433       .  S
C1910      C1911   1.394       .  A
C1910      H1915   1.085       .  S
C1911      C1912   1.406       .  A
C1912      N1913   1.439       .  S
N1913      H1917   1.046       .  S
N1913      H1918   1.044       .  S
N1916      H1919   1.046       .  S
N1916      H1920   1.046       .  S
C1921      C1922   1.424       .  A
C1921      C1926   1.396       .  A
C1921      H1928   1.081       .  S
C1922      C1923   1.430       .  A
C1923      C1924   1.412       .  A
C1923      N1930   1.430   1_554  S
C1924      C1925   1.400       .  A
C1924      H1929   1.084       .  S
C1925      C1926   1.407       .  A
C1926      N1927   1.440       .  S
N1927      H1931   1.046       .  S
N1927      H1932   1.042       .  S
N1930      H1933   1.046       .  S
N1930      H1934   1.046       .  S
C1935      C1936   1.414   1_554  A
C1935      C1940   1.390       .  A
C1935      H1942   1.072       .  S
C1936      C1937   1.436       .  A
C1937      C1938   1.417       .  A
C1937      N1944   1.430       .  S
C1938      C1939   1.400       .  A
C1938      H1943   1.084       .  S
C1939      C1940   1.404   1_556  A
C1940      N1941   1.434       .  S
N1941      H1945   1.046       .  S
N1941      H1946   1.046       .  S
N1944      H1947   1.046       .  S
N1944      H1948   1.045       .  S
C1949      C1950   1.402       .  A
C1949      C1954   1.407       .  A
C1949      H1956   1.084       .  S
C1950      C1951   1.409       .  A
C1951      C1952   1.389       .  A
C1951      N1958   1.440       .  S
C1952      C1953   1.417       .  A
C1952      H1957   1.082       .  S
C1953      C1954   1.434       .  A
C1954      N1955   1.431   1_556  S
N1955      H1959   1.038   1_554  S
N1955      H1960   1.043       .  S
N1958      H1961   1.046   1_556  S
N1958      H1962   1.046       .  S
C1963      C1964   1.421       .  A
C1963      C1968   1.403       .  A
C1963      H1970   1.084       .  S
C1964      C1965   1.431       .  A
C1965      C1966   1.391       .  A
C1965      N1972   1.434       .  S
C1966      C1967   1.391       .  A
C1966      H1971   1.082       .  S
C1967      C1968   1.404       .  A
C1968      N1969   1.437       .  S
N1969      H1973   1.046       .  S
N1969      H1974   1.044       .  S
N1972      H1975   1.046       .  S
N1972      H1976   1.046       .  S
C1977      C1978   1.420       .  A
C1977      C1982   1.382       .  A
C1977      H1984   1.082       .  S
C1978      C1979   1.421       .  A
C1979      C1980   1.404       .  A
C1979      N1986   1.431   1_545  S
C1980      C1981   1.402       .  A
C1980      H1985   1.084       .  S
C1981      C1982   1.402       .  A
C1982      N1983   1.434       .  S
N1983      H1987   1.044       .  S
N1983      H1988   1.046       .  S
N1986      H1989   1.046   1_565  S
N1986      H1990   1.046       .  S
C1991      C1992   1.417       .  A
C1991      C1996   1.381       .  A
C1991      H1998   1.075       .  S
C1992      C1993   1.427   1_545  A
C1993      C1994   1.393       .  A
C1993      N2000   1.430       .  S
C1994      C1995   1.390   1_565  A
C1994      H1999   1.084       .  S
C1995      C1996   1.398       .  A
C1996      N1997   1.441       .  S
N1997      H2001   1.046       .  S
N1997      H2002   1.046       .  S
N2000      H2003   1.046       .  S
N2000      H2004   1.046       .  S
C2005      C2006   1.413   1_545  A
C2005      C2010   1.387       .  A
C2005      H2012   1.077       .  S
C2006      C2007   1.423       .  A
C2007      C2008   1.393   1_565  A
C2007      N2014   1.433       .  S
C2008      C2009   1.393       .  A
C2008      H2013   1.084   1_545  S
C2009      C2010   1.402       .  A
C2010      N2011   1.440       .  S
N2011      H2015   1.046       .  S
N2011      H2016   1.045       .  S
N2014      H2017   1.045       .  S
N2014      H2018   1.046   1_565  S
C2019      C2020   1.424       .  A
C2019      C2024   1.403       .  A
C2019      H2026   1.070       .  S
C2020      C2021   1.440       .  A
C2021      C2022   1.407       .  A
C2021      N2028   1.432       .  S
C2022      C2023   1.392       .  A
C2022      H2027   1.084       .  S
C2023      C2024   1.394       .  A
C2024      N2025   1.438       .  S
N2025      H2029   1.046       .  S
N2025      H2030   1.046       .  S
N2028      H2031   1.047       .  S
N2028      H2032   1.046       .  S
C2033      C2034   1.424       .  A
C2033      C2038   1.406       .  A
C2033      H2040   1.072       .  S
C2034      C2035   1.429       .  A
C2035      C2036   1.402       .  A
C2035      N2042   1.427       .  S
C2036      C2037   1.390       .  A
C2036      H2041   1.078       .  S
C2037      C2038   1.406       .  A
C2038      N2039   1.439       .  S
N2039      H2043   1.046       .  S
N2039      H2044   1.044       .  S
N2042      H2045   1.046       .  S
N2042      H2046   1.046       .  S
C2047      C2048   1.432       .  A
C2047      C2052   1.410       .  A
C2047      H2054   1.073       .  S
C2048      C2049   1.442       .  A
C2049      C2050   1.405       .  A
C2049      N2056   1.425       .  S
C2050      C2051   1.392       .  A
C2050      H2055   1.085       .  S
C2051      C2052   1.405       .  A
C2052      N2053   1.439       .  S
N2053      H2057   1.046       .  S
N2053      H2058   1.044       .  S
N2056      H2059   1.044       .  S
N2056      H2060   1.041       .  S
C2061      C2062   1.424       .  A
C2061      C2066   1.407       .  A
C2061      H2068   1.080       .  S
C2062      C2063   1.435   1_554  A
C2063      C2064   1.403   1_556  A
C2063      N2070   1.433       .  S
C2064      C2065   1.400       .  A
C2064      H2069   1.085   1_554  S
C2065      C2066   1.401       .  A
C2066      N2067   1.438       .  S
N2067      H2071   1.046       .  S
N2067      H2072   1.045   1_554  S
N2070      H2073   1.042       .  S
N2070      H2074   1.038   1_556  S
C2075      C2076   1.393       .  A
C2075      C2080   1.412       .  A
C2075      H2082   1.084       .  S
C2076      C2077   1.405   1_554  A
C2077      C2078   1.397       .  A
C2077      N2084   1.433       .  S
C2078      C2079   1.415   1_556  A
C2078      H2083   1.074       .  S
C2079      C2080   1.440       .  A
C2080      N2081   1.429       .  S
N2081      H2085   1.045       .  S
N2081      H2086   1.046       .  S
N2084      H2087   1.046       .  S
N2084      H2088   1.045       .  S
C2089      C2090   1.425       .  A
C2089      C2094   1.416       .  A
C2089      H2096   1.083       .  S
C2090      C2091   1.436       .  A
C2091      C2092   1.388       .  A
C2091      N2098   1.434       .  S
C2092      C2093   1.393       .  A
C2092      H2097   1.085       .  S
C2093      C2094   1.403       .  A
C2094      N2095   1.436       .  S
N2095      H2099   1.046       .  S
N2095      H2100   1.046       .  S
N2098      H2101   1.046       .  S
N2098      H2102   1.046       .  S
C2103      C2104   1.394       .  A
C2103      C2108   1.402       .  A
C2103      H2110   1.084       .  S
C2104      C2105   1.401       .  A
C2105      C2106   1.398       .  A
C2105      N2112   1.439       .  S
C2106      C2107   1.417       .  A
C2106      H2111   1.078       .  S
C2107      C2108   1.427       .  A
C2108      N2109   1.433   1_565  S
N2109      H2113   1.046   1_545  S
N2109      H2114   1.046       .  S
N2112      H2115   1.044       .  S
N2112      H2116   1.046       .  S
C2117      C2118   1.401       .  A
C2117      C2122   1.395       .  A
C2117      H2124   1.083       .  S
C2118      C2119   1.405       .  A
C2119      C2120   1.423       .  A
C2119      N2126   1.437       .  S
C2120      C2121   1.425       .  A
C2120      H2125   1.068       .  S
C2121      C2122   1.435       .  A
C2122      N2123   1.431       .  S
N2123      H2127   1.042       .  S
N2123      H2128   1.043       .  S
N2126      H2129   1.046       .  S
N2126      H2130   1.046       .  S
C2131      C2132   1.406       .  A
C2131      C2136   1.402       .  A
C2131      H2138   1.083       .  S
C2132      C2133   1.412       .  A
C2133      C2134   1.396       .  A
C2133      N2140   1.440       .  S
C2134      C2135   1.417       .  A
C2134      H2139   1.080       .  S
C2135      C2136   1.416       .  A
C2136      N2137   1.429       .  S
N2137      H2141   1.044       .  S
N2137      H2142   1.046       .  S
N2140      H2143   1.046       .  S
N2140      H2144   1.046       .  S
C2145      C2146   1.418       .  A
C2145      C2150   1.401       .  A
C2145      H2152   1.080       .  S
C2146      C2147   1.445       .  A
C2147      C2148   1.424       .  A
C2147      N2154   1.437       .  S
C2148      C2149   1.404       .  A
C2148      H2153   1.082       .  S
C2149      C2150   1.418       .  A
C2150      N2151   1.433       .  S
N2151      H2155   1.042       .  S
N2151      H2156   1.045       .  S
N2154      H2157   1.036       .  S
N2154      H2158   1.045       .  S
C2159      C2160   1.415       .  A
C2159      C2164   1.409       .  A
C2159      H2166   1.078       .  S
C2160      C2161   1.433       .  A
C2161      C2162   1.387       .  A
C2161      N2168   1.433       .  S
C2162      C2163   1.389       .  A
C2162      H2167   1.085       .  S
C2163      C2164   1.413       .  A
C2164      N2165   1.437   1_565  S
N2165      H2169   1.045       .  S
N2165      H2170   1.044       .  S
N2168      H2171   1.046       .  S
N2168      H2172   1.046       .  S
C2173      C2174   1.427       .  A
C2173      C2178   1.405       .  A
C2173      H2180   1.077       .  S
C2174      C2175   1.431       .  A
C2175      C2176   1.426       .  A
C2175      N2182   1.432       .  S
C2176      C2177   1.408       .  A
C2176      H2181   1.083       .  S
C2177      C2178   1.407       .  A
C2178      N2179   1.434       .  S
N2179      H2183   1.045       .  S
N2179      H2184   1.046       .  S
N2182      H2185   1.045       .  S
N2182      H2186   1.046       .  S
C2187      C2188   1.416       .  A
C2187      C2192   1.405       .  A
C2187      H2194   1.083       .  S
C2188      C2189   1.403       .  A
C2189      C2190   1.403       .  A
C2189      N2196   1.433       .  S
C2190      C2191   1.435       .  A
C2190      H2195   1.077       .  S
C2191      C2192   1.413       .  A
C2192      N2193   1.433       .  S
N2193      H2197   1.045       .  S
N2193      H2198   1.046       .  S
N2196      H2199   1.046       .  S
N2196      H2200   1.045       .  S
C2201      C2202   1.416       .  A
C2201      C2206   1.403       .  A
C2201      H2208   1.074       .  S
C2202      C2203   1.440       .  A
C2203      C2204   1.393       .  A
C2203      N2210   1.434       .  S
C2204      C2205   1.385       .  A
C2204      H2209   1.085       .  S
C2205      C2206   1.399       .  A
C2206      N2207   1.438       .  S
N2207      H2211   1.046       .  S
N2207      H2212   1.045       .  S
N2210      H2213   1.046       .  S
N2210      H2214   1.046       .  S
C2215      C2216   1.411       .  A
C2215      C2220   1.386       .  A
C2215      H2222   1.082       .  S
C2216      C2217   1.431       .  A
C2217      C2218   1.420       .  A
C2217      N2224   1.429       .  S
C2218      C2219   1.404       .  A
C2218      H2223   1.083       .  S
C2219      C2220   1.413       .  A
C2220      N2221   1.433       .  S
N2221      H2225   1.046       .  S
N2221      H2226   1.046       .  S
N2224      H2227   1.045       .  S
N2224      H2228   1.046       .  S
C2229      C2230   1.414       .  A
C2229      C2234   1.398       .  A
C2229      H2236   1.079       .  S
C2230      C2231   1.423       .  A
C2231      C2232   1.396       .  A
C2231      N2238   1.433       .  S
C2232      C2233   1.402       .  A
C2232      H2237   1.084       .  S
C2233      C2234   1.415       .  A
C2234      N2235   1.432       .  S
N2235      H2239   1.045       .  S
N2235      H2240   1.046       .  S
N2238      H2241   1.046       .  S
N2238      H2242   1.046       .  S
C2243      C2244   1.398       .  A
C2243      C2248   1.413       .  A
C2243      H2250   1.084       .  S
C2244      C2245   1.415       .  A
C2245      C2246   1.380       .  A
C2245      N2252   1.434       .  S
C2246      C2247   1.404       .  A
C2246      H2251   1.084       .  S
C2247      C2248   1.436       .  A
C2248      N2249   1.430       .  S
N2249      H2253   1.045       .  S
N2249      H2254   1.046       .  S
N2252      H2255   1.046       .  S
N2252      H2256   1.046       .  S
C2257      C2258   1.406       .  A
C2257      C2262   1.406       .  A
C2257      H2264   1.076       .  S
C2258      C2259   1.432       .  A
C2259      C2260   1.422       .  A
C2259      N2266   1.432       .  S
C2260      C2261   1.404       .  A
C2260      H2265   1.083       .  S
C2261      C2262   1.421       .  A
C2262      N2263   1.439       .  S
N2263      H2267   1.046       .  S
N2263      H2268   1.046       .  S
N2266      H2269   1.045       .  S
N2266      H2270   1.045       .  S
C2271      C2272   1.403       .  A
C2271      C2276   1.397       .  A
C2271      H2278   1.084       .  S
C2272      C2273   1.407       .  A
C2273      C2274   1.415       .  A
C2273      N2280   1.437       .  S
C2274      C2275   1.425       .  A
C2274      H2279   1.083       .  S
C2275      C2276   1.428       .  A
C2276      N2277   1.432       .  S
N2277      H2281   1.046       .  S
N2277      H2282   1.046       .  S
N2280      H2283   1.045       .  S
N2280      H2284   1.046       .  S
C2285      C2286   1.420       .  A
C2285      C2290   1.417       .  A
C2285      H2292   1.084       .  S
C2286      C2287   1.434       .  A
C2287      C2288   1.394       .  A
C2287      N2294   1.435       .  S
C2288      C2289   1.396       .  A
C2288      H2293   1.085       .  S
C2289      C2290   1.418       .  A
C2290      N2291   1.436       .  S
N2291      H2295   1.046       .  S
N2291      H2296   1.042       .  S
N2294      H2297   1.046       .  S
N2294      H2298   1.046       .  S
C2299      C2300   1.407       .  A
C2299      C2304   1.412       .  A
C2299      H2306   1.083       .  S
C2300      C2301   1.409   1_545  A
C2301      C2302   1.386       .  A
C2301      N2308   1.435       .  S
C2302      C2303   1.419       .  A
C2302      H2307   1.078       .  S
C2303      C2304   1.423   1_565  A
C2304      N2305   1.430       .  S
N2305      H2309   1.046       .  S
N2305      H2310   1.046       .  S
N2308      H2311   1.046       .  S
N2308      H2312   1.046       .  S
C2313      C2314   1.410       .  A
C2313      C2318   1.404       .  A
C2313      H2320   1.078       .  S
C2314      C2315   1.427       .  A
C2315      C2316   1.405       .  A
C2315      N2322   1.433       .  S
C2316      C2317   1.401       .  A
C2316      H2321   1.084       .  S
C2317      C2318   1.419       .  A
C2318      N2319   1.432       .  S
N2319      H2323   1.044       .  S
N2319      H2324   1.046   1_565  S
N2322      H2325   1.045   1_565  S
N2322      H2326   1.046       .  S
C2327      C2328   1.387       .  A
C2327      C2332   1.397       .  A
C2327      H2334   1.085       .  S
C2328      C2329   1.409       .  A
C2329      C2330   1.406       .  A
C2329      N2336   1.439       .  S
C2330      C2331   1.421       .  A
C2330      H2335   1.083       .  S
C2331      C2332   1.441       .  A
C2332      N2333   1.433       .  S
N2333      H2337   1.046       .  S
N2333      H2338   1.046       .  S
N2336      H2339   1.044       .  S
N2336      H2340   1.046       .  S
C2341      C2342   1.425       .  A
C2341      C2346   1.404       .  A
C2341      H2348   1.079       .  S
C2342      C2343   1.442       .  A
C2343      C2344   1.392       .  A
C2343      N2350   1.434       .  S
C2344      C2345   1.393       .  A
C2344      H2349   1.086       .  S
C2345      C2346   1.404       .  A
C2346      N2347   1.438       .  S
N2347      H2351   1.046       .  S
N2347      H2352   1.044       .  S
N2350      H2353   1.039       .  S
N2350      H2354   1.040       .  S
C2355      C2356   1.405       .  A
C2355      C2360   1.421       .  A
C2355      H2362   1.083       .  S
C2356      C2357   1.417       .  A
C2357      C2358   1.394       .  A
C2357      N2364   1.434       .  S
C2358      C2359   1.413       .  A
C2358      H2363   1.084       .  S
C2359      C2360   1.433       .  A
C2360      N2361   1.429       .  S
N2361      H2365   1.046       .  S
N2361      H2366   1.045       .  S
N2364      H2367   1.046       .  S
N2364      H2368   1.046       .  S
C2369      C2370   1.396       .  A
C2369      C2374   1.406       .  A
C2369      H2376   1.084       .  S
C2370      C2371   1.405       .  A
C2371      C2372   1.408       .  A
C2371      N2378   1.437       .  S
C2372      C2373   1.419       .  A
C2372      H2377   1.083       .  S
C2373      C2374   1.440       .  A
C2374      N2375   1.437       .  S
N2375      H2379   1.038       .  S
N2375      H2380   1.045       .  S
N2378      H2381   1.045       .  S
N2378      H2382   1.046       .  S
C2383      C2384   1.411       .  A
C2383      C2388   1.402       .  A
C2383      H2390   1.078       .  S
C2384      C2385   1.441       .  A
C2385      C2386   1.400       .  A
C2385      N2392   1.433       .  S
C2386      C2387   1.394       .  A
C2386      H2391   1.082       .  S
C2387      C2388   1.422       .  A
C2388      N2389   1.434       .  S
N2389      H2393   1.043       .  S
N2389      H2394   1.046       .  S
N2392      H2395   1.043       .  S
N2392      H2396   1.042       .  S
C2397      C2398   1.407       .  A
C2397      C2402   1.429       .  A
C2397      H2404   1.083       .  S
C2398      C2399   1.417       .  A
C2399      C2400   1.399       .  A
C2399      N2406   1.434       .  S
C2400      C2401   1.413       .  A
C2400      H2405   1.078       .  S
C2401      C2402   1.440       .  A
C2402      N2403   1.436   1_556  S
N2403      H2407   1.045   1_554  S
N2403      H2408   1.044       .  S
N2406      H2409   1.046       .  S
N2406      H2410   1.046       .  S
C2411      C2412   1.399       .  A
C2411      C2416   1.405       .  A
C2411      H2418   1.084       .  S
C2412      C2413   1.409       .  A
C2413      C2414   1.401       .  A
C2413      N2420   1.439       .  S
C2414      C2415   1.420       .  A
C2414      H2419   1.078       .  S
C2415      C2416   1.436       .  A
C2416      N2417   1.435       .  S
N2417      H2421   1.043   1_655  S
N2417      H2422   1.041       .  S
N2420      H2423   1.043       .  S
N2420      H2424   1.046       .  S
