geometry optimzed in LAMMPS
_audit_creation_date              2020-11-30 
_audit_creation_method            'lammps2cif' 
_symmetry_space_group_name_H-M    'P1' 
_symmetry_Int_Tables_number       1 
_symmetry_cell_setting            triclinic 
loop_ 
_symmetry_equiv_pos_as_xyz 
  x,y,z 
_cell_length_a                    43.62592443 
_cell_length_b                    43.81492899315606 
_cell_length_c                    35.525145964686736 
_cell_angle_alpha                 89.37006195859749 
_cell_angle_beta                  89.97746411764703 
_cell_angle_gamma                 120.82116965606455 
loop_ 
_atom_site_label 
_atom_site_type_symbol 
_atom_site_fract_x 
_atom_site_fract_y 
_atom_site_fract_z 
_atom_site_charge 
In1        In  0.57068331  0.57351928  0.33273746     1.36900
C2          C  0.55116221  0.60131950  0.38701140     0.78600
O3          O  0.51257957  0.54586367  0.31700151    -0.59900
O4          O  0.53786598  0.51553036  0.31952715    -0.50800
C5          C  0.59528818  0.60594318  0.26584478     0.71200
O6          O  0.57296922  0.60906426  0.28512384    -0.45700
C7          C  0.60958523  0.55496469  0.37395766     0.75900
O8          O  0.53435636  0.56889409  0.37892814    -0.57500
O9          O  0.58743561  0.53506114  0.34984509    -0.47600
O10         O  0.57910627  0.62036109  0.36764355    -0.53900
C11         C  0.50934323  0.51569514  0.31470836     0.86100
O12         O  0.60770600  0.58901315  0.28220722    -0.55800
O13         O  0.61470138  0.58605674  0.37470856    -0.59100
In14       In  0.37700789  0.36101402  0.34302993     1.36900
C15         C  0.39376724  0.32672857  0.39366546     0.78600
O16         O  0.43449760  0.38882826  0.32470353    -0.59900
O17         O  0.40816542  0.41823040  0.32410175    -0.50800
C18         C  0.34539743  0.33199011  0.27784560     0.71200
O19         O  0.35895763  0.31848231  0.29841266    -0.45700
C20         C  0.34786924  0.38562419  0.39028778     0.75900
O21         O  0.41457450  0.34585958  0.36769377    -0.57500
O22         O  0.38075494  0.40126681  0.38295598    -0.47600
O23         O  0.36271235  0.32194299  0.39177499    -0.53900
C24         C  0.43689035  0.41841770  0.31931138     0.86100
O25         O  0.34478632  0.35763894  0.29244446    -0.55800
O26         O  0.32903415  0.35648944  0.37353120    -0.59100
In27       In  0.57864529  0.57139615  0.09758927     1.36900
C28         C  0.60789070  0.55006987  0.04628157     0.78600
O29         O  0.55288213  0.51407910  0.11545676    -0.59900
O30         O  0.52283047  0.53942415  0.12126583    -0.50800
C31         C  0.60981055  0.59938248  0.16316212     0.71200
O32         O  0.61622974  0.57895322  0.14475685    -0.45700
C33         C  0.55838009  0.60628212  0.05122727     0.75900
O34         O  0.57486740  0.53492443  0.05261966    -0.57500
O35         O  0.53726080  0.58022341  0.07159850    -0.47600
O36         O  0.62687998  0.57723127  0.06597882    -0.53900
C37         C  0.52346619  0.51103975  0.12408825     0.86100
O38         O  0.59090420  0.60909128  0.14600194    -0.55800
O39         O  0.59098707  0.61671313  0.05614565    -0.59100
In40       In  0.36970085  0.37537987  0.11046507     1.36900
C41         C  0.34284414  0.39628841  0.05563435     0.78600
O42         O  0.39650410  0.43299712  0.12602287    -0.59900
O43         O  0.42757788  0.40846087  0.12657416    -0.50800
C44         C  0.33648050  0.34857131  0.17648499     0.71200
O45         O  0.33526116  0.37293926  0.15895000    -0.45700
C46         C  0.38979061  0.33763372  0.07010777     0.75900
O47         O  0.37535758  0.41217127  0.06411500    -0.57500
O48         O  0.40856118  0.35863620  0.09558570    -0.47600
O49         O  0.32307696  0.36852924  0.07500666    -0.53900
C50         C  0.42686131  0.43669180  0.13008417     0.86100
O51         O  0.35145642  0.33512311  0.15857444    -0.55800
O52         O  0.35902495  0.33345694  0.06689486    -0.59100
In53       In  0.31450136  0.83959773  0.48644898     1.36900
C54         C  0.33906075  0.90108252  0.04146780     0.78600
O55         O  0.34452671  0.83060656  0.02766212    -0.59900
O56         O  0.35234074  0.82486906  0.46153624    -0.50800
C57         C  0.25102723  0.78094681  0.47666113     0.71200
O58         O  0.26599169  0.80837349  0.02439002    -0.45700
C59         C  0.33587801  0.88863674  0.43242487     0.75900
O60         O  0.30640650  0.88382633  0.03278507    -0.57500
O61         O  0.35644590  0.88106637  0.44937159    -0.47600
O62         O  0.35823645  0.89174106  0.02462481    -0.53900
C63         C  0.35795561  0.81412354  0.49244283     0.86100
O64         O  0.27373310  0.79550798  0.45064920    -0.55800
O65         O  0.30357196  0.87052594  0.44238240    -0.59100
In66       In  0.51483036  0.84388218  0.48418286     1.36900
C67         C  0.54403337  0.89614429  0.43280150     0.78600
O68         O  0.46621034  0.82322514  0.44790356    -0.59900
O69         O  0.45918444  0.82209312  0.50714178    -0.50800
C70         C  0.52410316  0.78785202  0.48602130     0.71200
O71         O  0.51486009  0.79736250  0.45669109    -0.45700
C72         C  0.54019865  0.88744116  0.04140129     0.75900
O73         O  0.55919344  0.87928174  0.44251207    -0.57500
O74         O  0.51361216  0.88210208  0.02240023    -0.47600
O75         O  0.51463863  0.88594602  0.44885767    -0.53900
C76         C  0.44519519  0.81738343  0.47502062     0.86100
O77         O  0.50591952  0.79241697  0.01622643    -0.55800
O78         O  0.55953826  0.88627555  0.51911253    -0.59100
In79       In  0.51209454  0.63565362  0.47160675     1.36900
C80         C  0.54473456  0.62041082  0.02214081     0.78600
O81         O  0.46032260  0.60029554  0.98614691    -0.59900
O82         O  0.45889017  0.59848219  0.44511860    -0.50800
C83         C  0.51757442  0.69915533  0.46446852     0.71200
O84         O  0.51602704  0.68169486  0.99208172    -0.45700
C85         C  0.53812329  0.61470867  0.41673468     0.75900
O86         O  0.56396266  0.64393768  0.99806684    -0.57500
O87         O  0.50977821  0.59412393  0.43449818    -0.47600
O88         O  0.51176309  0.60731156  0.01764551    -0.53900
C89         C  0.44220792  0.58870888  0.47606707     0.86100
O90         O  0.50818983  0.67738149  0.43809388    -0.55800
O91         O  0.55360546  0.64678587  0.42665945    -0.59100
In92       In  0.31176084  0.43165046  0.46536961     1.36900
C93         C  0.33378577  0.40106766  0.41655228     0.78600
O94         O  0.34133861  0.48114778  0.42884494    -0.59900
O95         O  0.34870877  0.48626967  0.48784621    -0.50800
C96         C  0.24705331  0.42455512  0.46216658     0.71200
O97         O  0.26499230  0.42715117  0.43336388    -0.45700
C98         C  0.33039124  0.40997456  0.02512968     0.75900
O99         O  0.30127529  0.38692981  0.42564340    -0.57500
O100        O  0.35203112  0.43767533  0.00709462    -0.47600
O101        O  0.35421953  0.43025044  0.43208686    -0.53900
C102        C  0.35762966  0.50127445  0.45597166     0.86100
O103        O  0.26180346  0.43164136  0.99276274    -0.55800
O104        O  0.30547726  0.38567120  0.50151098    -0.59100
In105      In  0.10278956  0.63071231  0.48496198     1.36900
C106        C  0.05812984  0.61514497  0.42716740     0.78600
O107        O  0.12574635  0.60466015  0.45026846    -0.59900
O108        O  0.11859924  0.59273588  0.50885933    -0.50800
C109        C  0.16211192  0.69428004  0.49377704     0.71200
O110        O  0.14846325  0.68273395  0.46205804    -0.45700
C111        C  0.06283777  0.62821104  0.03930187     0.75900
O112        O  0.06803599  0.64262729  0.44650548    -0.57500
O113        O  0.08627632  0.61957605  0.03794612    -0.47600
O114        O  0.07189796  0.59714474  0.43661568    -0.53900
C115        C  0.12707912  0.58636062  0.47714313     0.86100
O116        O  0.14729088  0.69004779  0.00444915    -0.55800
O117        O  0.06322114  0.63772996  0.52008379    -0.59100
In118      In  0.10458984  0.43197990  0.48412548     1.36900
C119        C  0.05171265  0.40827176  0.03373158     0.78600
O120        O  0.12482961  0.48762472  0.01817578    -0.59900
O121        O  0.11628360  0.48507288  0.46142243    -0.50800
C122        C  0.16196605  0.42498732  0.48797076     0.71200
O123        O  0.14591221  0.43265967  0.01421282    -0.45700
C124        C  0.06460144  0.39993717  0.42432232     0.75900
O125        O  0.07147381  0.39572215  0.02676015    -0.57500
O126        O  0.08785232  0.43258848  0.42459203    -0.47600
O127        O  0.05875290  0.43553177  0.01473273    -0.53900
C128        C  0.12687222  0.50736575  0.99105425     0.86100
O129        O  0.15054033  0.43016161  0.45748311    -0.55800
O130        O  0.06364061  0.38291541  0.45356198    -0.59100
In131      In  0.58228224  0.98044611  0.35763780     1.36900
C132        C  0.61144405  0.03275606  0.40757121     0.78600
O133        O  0.55788212  0.00990030  0.33203589    -0.59900
O134        O  0.52497121  0.95399881  0.33970499    -0.50800
C135        C  0.61365506  0.97966140  0.29343430     0.71200
O136        O  0.62636714  0.00675287  0.31380839    -0.45700
C137        C  0.55856577  0.92571406  0.40552293     0.75900
O138        O  0.58801464  0.02874178  0.38440925    -0.57500
O139        O  0.54086733  0.93991189  0.39604229    -0.47600
O140        O  0.62262976  0.01146132  0.40372362    -0.53900
C141        C  0.52712029  0.98282094  0.32987080     0.86100
O142        O  0.58749437  0.95241006  0.30784072    -0.55800
O143        O  0.58904679  0.93931120  0.39027545    -0.59100
In144      In  0.37715271  0.96747294  0.35179460     1.36900
C145        C  0.34947269  0.91674805  0.40381150     0.78600
O146        O  0.40052564  0.93521806  0.33118608    -0.59900
O147        O  0.43483401  0.99090576  0.33649492    -0.50800
C148        C  0.34817093  0.96580574  0.28544282     0.71200
O149        O  0.33695996  0.93874949  0.30628174    -0.45700
C150        C  0.39136021  0.02194817  0.39587055     0.75900
O151        O  0.38251113  0.93633416  0.39807956    -0.57500
O152        O  0.41434113  0.02058986  0.37576110    -0.47600
O153        O  0.32987054  0.92334753  0.38323112    -0.53900
C154        C  0.43185220  0.96145986  0.32892216     0.86100
O155        O  0.37157772  0.99428981  0.30017719    -0.55800
O156        O  0.35987773  0.99623751  0.39186016    -0.59100
In157      In  0.57309210  0.95961255  0.12755850     1.36900
C158        C  0.55356590  0.91334828  0.07187562     0.78600
O159        O  0.51435024  0.92693036  0.14162725    -0.59900
O160        O  0.54128775  0.98264548  0.14947597    -0.50800
C161        C  0.60026094  0.95423061  0.19280868     0.71200
O162        O  0.57592339  0.92783229  0.17600222    -0.45700
C163        C  0.61029646  0.01834011  0.08648719     0.75900
O164        O  0.53948522  0.93162903  0.07839722    -0.57500
O165        O  0.58603202  0.01354105  0.10915902    -0.47600
O166        O  0.57883764  0.91896186  0.09365418    -0.53900
C167        C  0.51200070  0.95355863  0.14976262     0.86100
O168        O  0.61357242  0.98296734  0.17436916    -0.55800
O169        O  0.61814082  0.99428930  0.08693362    -0.59100
In170      In  0.38731047  0.98316922  0.11695055     1.36900
C171        C  0.35480002  0.93002626  0.06867965     0.78600
O172        O  0.37441551  0.01481522  0.07521900    -0.59900
O173        O  0.42848227  0.03138428  0.08682638    -0.50800
C174        C  0.36098989  0.98799689  0.18270432     0.71200
O175        O  0.35238258  0.95861181  0.16815035    -0.45700
C176        C  0.44313594  0.98095320  0.14338065     0.75900
O177        O  0.33730314  0.93985361  0.08833445    -0.57500
O178        O  0.44432653  0.00931036  0.13408134    -0.47600
O179        O  0.38794909  0.94712078  0.07403561    -0.53900
C180        C  0.40701540  0.03623885  0.06785376     0.86100
O181        O  0.37968723  0.01456334  0.16180742    -0.55800
O182        O  0.41279075  0.95324298  0.14046248    -0.59100
In183      In  0.84425956  0.50485812  0.48024197     1.36900
C184        C  0.90258145  0.53917317  0.03267038     0.78600
O185        O  0.83234656  0.45881644  0.01917541    -0.59900
O186        O  0.83579369  0.45446184  0.45373771    -0.50800
C187        C  0.78615279  0.51103236  0.48268060     0.71200
O188        O  0.80588761  0.50689886  0.01560075    -0.45700
C189        C  0.88855070  0.53707076  0.42245256     0.75900
O190        O  0.88190259  0.55070064  0.02572158    -0.57500
O191        O  0.86226379  0.50578001  0.42095470    -0.47600
O192        O  0.89709529  0.51282005  0.01364002    -0.53900
C193        C  0.82983455  0.43913106  0.99237465     0.86100
O194        O  0.80283357  0.51428684  0.45258157    -0.55800
O195        O  0.89040231  0.55329458  0.45226577    -0.59100
In196      In  0.84391459  0.30197722  0.47409563     1.36900
C197        C  0.89099621  0.31298712  0.42039869     0.78600
O198        O  0.83449253  0.33863400  0.43757435    -0.59900
O199        O  0.82444564  0.33773678  0.49599399    -0.50800
C200        C  0.78368957  0.23831704  0.47508750     0.71200
O201        O  0.80530410  0.24946823  0.44795669    -0.45700
C202        C  0.88996024  0.31618867  0.04236167     0.75900
O203        O  0.89034856  0.29822894  0.45128401    -0.57500
O204        O  0.86591866  0.32403408  0.04101179    -0.47600
O205        O  0.86618511  0.31936535  0.41611785    -0.53900
C206        C  0.82603916  0.35166394  0.46418470     0.86100
O207        O  0.80791164  0.25294179  0.00810489    -0.55800
O208        O  0.87354669  0.29116018  0.52058628    -0.59100
In209      In  0.43557761  0.30730833  0.48815950     1.36900
C210        C  0.40476484  0.32278177  0.04405701     0.78600
O211        O  0.48833962  0.34228192  0.02300619    -0.59900
O212        O  0.48926964  0.34298823  0.46039915    -0.50800
C213        C  0.43049482  0.24378408  0.49799650     0.71200
O214        O  0.42110280  0.25502530  0.01825042    -0.45700
C215        C  0.40663386  0.31507750  0.42568603     0.75900
O216        O  0.38820877  0.30406015  0.01611843    -0.57500
O217        O  0.43846663  0.32209084  0.42730237    -0.47600
O218        O  0.43687904  0.33091599  0.04611919    -0.53900
C219        C  0.50776848  0.35573887  0.99421251     0.86100
O220        O  0.44455181  0.26829121  0.52161878    -0.55800
O221        O  0.38836215  0.30100403  0.45514825    -0.59100
In222      In  0.63986985  0.51124449  0.45850599     1.36900
C223        C  0.62448278  0.54110239  0.40162722     0.78600
O224        O  0.60714504  0.45794235  0.43083723    -0.59900
O225        O  0.60253287  0.46041600  0.48994804    -0.50800
C226        C  0.70458644  0.51809914  0.45698368     0.71200
O227        O  0.69362233  0.52997766  0.43126273    -0.45700
C228        C  0.62184408  0.53614597  0.01789185     0.75900
O229        O  0.64378709  0.55906824  0.42866326    -0.57500
O230        O  0.60093439  0.50992035  0.99832230    -0.47600
O231        O  0.61570295  0.50888005  0.40225362    -0.53900
C232        C  0.59140752  0.44177101  0.46077587     0.86100
O233        O  0.68900871  0.50681800  0.99248561    -0.55800
O234        O  0.65415515  0.55020661  0.50697960    -0.59100
In235      In  0.62917732  0.09733747  0.49837868     1.36900
C236        C  0.62479396  0.04777441  0.05920232     0.78600
O237        O  0.61098025  0.11646552  0.03323051    -0.59900
O238        O  0.59277518  0.11476960  0.47317373    -0.50800
C239        C  0.69311543  0.15715044  0.50175345     0.71200
O240        O  0.69186758  0.13339179  0.03323271    -0.45700
C241        C  0.62149163  0.05819477  0.43829533     0.75900
O242        O  0.64829450  0.05341932  0.03494095    -0.57500
O243        O  0.60815117  0.07767213  0.44098652    -0.47600
O244        O  0.61190746  0.06761404  0.05628856    -0.53900
C245        C  0.59840640  0.12171050  0.00360341     0.86100
O246        O  0.67973261  0.14137669  0.47142700    -0.55800
O247        O  0.64110213  0.06031366  0.46543197    -0.59100
In248      In  0.42719014  0.09525345  0.48099751     1.36900
C249        C  0.40203381  0.04995981  0.42384704     0.78600
O250        O  0.48052829  0.12026793  0.45155877    -0.59900
O251        O  0.47920941  0.11203979  0.51065797    -0.50800
C252        C  0.41796534  0.15149195  0.48024461     0.71200
O253        O  0.40584864  0.12811561  0.45526733    -0.45700
C254        C  0.42020838  0.06318433  0.03775938     0.75900
O255        O  0.43398816  0.07464793  0.42642875    -0.57500
O256        O  0.45315126  0.08403090  0.03285750    -0.47600
O257        O  0.38154239  0.04990216  0.44895400    -0.53900
C258        C  0.49749971  0.12109683  0.48065795     0.86100
O259        O  0.43719545  0.14666259  0.00140954    -0.55800
O260        O  0.38562744  0.06407699  0.52741331    -0.59100
In261      In  0.97500828  0.56947935  0.35230576     1.36900
C262        C  0.03094952  0.60257173  0.39766039     0.78600
O263        O  0.94494780  0.58148871  0.39610942    -0.59900
O264        O  0.91763110  0.53220445  0.36812306    -0.50800
C265        C  0.98255331  0.60174071  0.28568306     0.71200
O266        O  0.00856157  0.60826289  0.30636729    -0.45700
C267        C  0.97237772  0.50820058  0.33985494     0.75900
O268        O  0.01006868  0.61418319  0.39232818    -0.57500
O269        O  0.97283010  0.51974288  0.37231340    -0.47600
O270        O  0.02488246  0.57659712  0.37758598    -0.53900
C271        C  0.91714271  0.55125090  0.39404918     0.86100
O272        O  0.95246996  0.58155466  0.30068894    -0.55800
O273        O  0.97271988  0.52776699  0.31342298    -0.59100
In274      In  0.97965334  0.36512855  0.35431266     1.36900
C275        C  0.03753884  0.38458977  0.39481425     0.78600
O276        O  0.97375726  0.40904449  0.32715204    -0.59900
O277        O  0.98052699  0.40906459  0.38620471    -0.50800
C278        C  0.97871304  0.33935583  0.28604548     0.71200
O279        O  0.00482605  0.36768546  0.29808698    -0.45700
C280        C  0.92057232  0.32634529  0.39352172     0.75900
O281        O  0.03640014  0.40364662  0.36874623    -0.57500
O282        O  0.92247874  0.34550735  0.36584658    -0.47600
O283        O  0.01107281  0.35323746  0.39645027    -0.53900
C284        C  0.97636791  0.42411324  0.35808363     0.86100
O285        O  0.95461955  0.32229024  0.31018423    -0.55800
O286        O  0.94770037  0.32349506  0.39855341    -0.59100
In287      In  0.97959999  0.57562755  0.11411251     1.36900
C288        C  0.03575887  0.61461768  0.06936160     0.78600
O289        O  0.01007938  0.55055443  0.13475826    -0.59900
O290        O  0.95446896  0.51703726  0.12537831    -0.50800
C291        C  0.96702968  0.59448640  0.18111381     0.71200
O292        O  0.99709472  0.61156459  0.16504990    -0.45700
C293        C  0.93032134  0.55368932  0.06131148     0.75900
O294        O  0.03422722  0.59251039  0.09320472    -0.57500
O295        O  0.94676960  0.53797863  0.06987844    -0.47600
O296        O  0.01021142  0.62035549  0.07110396    -0.53900
C297        C  0.98361730  0.51937928  0.13416657     0.86100
O298        O  0.94302651  0.57085927  0.16123178    -0.55800
O299        O  0.93922638  0.58160965  0.07960738    -0.59100
In300      In  0.97285801  0.37062848  0.11492243     1.36900
C301        C  0.91678562  0.32967319  0.07219594     0.78600
O302        O  0.94003906  0.39318827  0.13622408    -0.59900
O303        O  0.99438470  0.42884844  0.12205322    -0.50800
C304        C  0.98987046  0.35392607  0.18125811     0.71200
O305        O  0.95966027  0.33451085  0.16663119    -0.45700
C306        C  0.02304734  0.39342917  0.06201779     0.75900
O307        O  0.91624201  0.34901532  0.09768010    -0.57500
O308        O  0.00544206  0.40826626  0.06897569    -0.47600
O309        O  0.94434342  0.32717459  0.07172326    -0.53900
C310        C  0.96506865  0.42497241  0.13295932     0.86100
O311        O  0.01148810  0.37937124  0.16073586    -0.55800
O312        O  0.01439323  0.36581889  0.08153139    -0.59100
C313        C  0.98760454  0.48839533  0.13997870    -0.15500
C314        C  0.95974484  0.45509485  0.13872380    -0.30600
H315        H  0.01462329  0.49310708  0.14121136     0.13600
H316        H  0.93260464  0.45010133  0.13834824     0.14100
C317        C  0.97442932  0.32935150  0.24596258    -0.15500
C318        C  0.99902357  0.35068675  0.22046246    -0.30600
H319        H  0.94821013  0.30864183  0.23674759     0.13600
H320        H  0.02505552  0.37151202  0.23005239     0.14100
C321        C  0.98756411  0.61342823  0.24579757    -0.15500
C322        C  0.96056325  0.59807100  0.22120299    -0.30600
H323        H  0.01482345  0.62902122  0.23533763     0.13600
H324        H  0.93345795  0.58121134  0.23169776     0.14100
C325        C  0.97222067  0.47493851  0.33338100    -0.15500
C326        C  0.97479585  0.45658819  0.36239704    -0.30600
H327        H  0.97096023  0.46602107  0.30470493     0.13600
H328        H  0.97652411  0.46607687  0.39091436     0.14100
C329        C  0.55099921  0.12422334  0.50850390    -0.15500
C330        C  0.53454063  0.12830396  0.47851840    -0.30600
H331        H  0.55993156  0.13201035  0.03221241     0.13600
H332        H  0.54632912  0.13188203  0.45067531     0.14100
C333        C  0.41474700  0.18351313  0.47779501    -0.15500
C334        C  0.42965206  0.20976018  0.50308504    -0.30600
H335        H  0.40135046  0.18638037  0.45335511     0.13600
H336        H  0.42135913  0.19445973  0.02117776     0.14100
C337        C  0.54089891  0.38962792  0.49200547    -0.15500
C338        C  0.56048641  0.40502447  0.46077550    -0.30600
H339        H  0.55448083  0.39759185  0.02412267     0.13600
H340        H  0.55123890  0.39214435  0.43377567     0.14100
C341        C  0.74990526  0.20391148  0.47404730    -0.15500
C342        C  0.72784855  0.19057145  0.50388990    -0.30600
H343        H  0.74280010  0.18943838  0.44778466     0.13600
H344        H  0.73527960  0.20455015  0.53045130     0.14100
C345        C  0.75295847  0.51212412  0.48480219    -0.15500
C346        C  0.73965862  0.52066927  0.45513474    -0.30600
H347        H  0.73854617  0.50471650  0.51146415     0.13600
H348        H  0.75442938  0.52905093  0.42870470     0.14100
C349        C  0.82164690  0.38268911  0.45819702    -0.15500
C350        C  0.81467535  0.39847963  0.48642002    -0.30600
H351        H  0.82845672  0.39525093  0.43046984     0.13600
H352        H  0.80774392  0.38599223  0.51416683     0.14100
C353        C  0.47739802  0.95129819  0.15489300    -0.15500
C354        C  0.47572324  0.98101510  0.15390037    -0.30600
H355        H  0.45320313  0.92545977  0.15268273     0.13600
H356        H  0.50017833  0.00678195  0.15481607     0.14100
C357        C  0.35416087  0.99169597  0.22249878    -0.15500
C358        C  0.33808022  0.96322872  0.24557013    -0.30600
H359        H  0.36902397  0.01818492  0.23423914     0.13600
H360        H  0.32322716  0.93674670  0.23382678     0.14100
C361        C  0.62506032  0.98094152  0.25402564    -0.15500
C362        C  0.60830289  0.95180960  0.23262613    -0.30600
H363        H  0.64071790  0.00699637  0.24079758     0.13600
H364        H  0.59253985  0.92590648  0.24616121     0.14100
C365        C  0.49590830  0.98572506  0.32053826    -0.15500
C366        C  0.46275506  0.95737517  0.32183604    -0.30600
H367        H  0.49990096  0.01233107  0.31858061     0.13600
H368        H  0.45863007  0.93071140  0.32351084     0.14100
C369        C  0.13547708  0.53733062  0.49873522    -0.15500
C370        C  0.13415783  0.55731481  0.47060014    -0.30600
H371        H  0.13687457  0.54556299  0.52772785     0.13600
H372        H  0.13347280  0.54927576  0.44163853     0.14100
C373        C  0.21256983  0.42308096  0.45981471    -0.15500
C374        C  0.19425926  0.42230117  0.49057569    -0.30600
H375        H  0.20288796  0.42438366  0.43199974     0.13600
H376        H  0.20381398  0.42088998  0.51842607     0.14100
C377        C  0.38717901  0.53829051  0.45045844    -0.15500
C378        C  0.40521496  0.55860695  0.47987823    -0.30600
H379        H  0.39741383  0.54691583  0.42202257     0.13600
H380        H  0.39488098  0.54984130  0.50826395     0.14100
C381        C  0.52720965  0.75590582  0.48873310    -0.15500
C382        C  0.51862688  0.73321340  0.46016743    -0.30600
H383        H  0.53499513  0.74999146  0.51565737     0.13600
H384        H  0.51053344  0.73893115  0.43332516     0.14100
C385        C  0.21648278  0.74805963  0.47062118    -0.15500
C386        C  0.19532175  0.72860644  0.49942835    -0.30600
H387        H  0.20208019  0.74948332  0.02773228     0.13600
H388        H  0.20335054  0.73724448  0.52815742     0.14100
C389        C  0.40848056  0.80967929  0.46892754    -0.15500
C390        C  0.38709061  0.80671952  0.49767804    -0.30600
H391        H  0.40115234  0.81205892  0.44027519     0.13600
H392        H  0.39957111  0.82099395  0.03475140     0.14100
C393        C  0.49182685  0.47627837  0.13327399    -0.15500
C394        C  0.45908397  0.47187009  0.13489327    -0.30600
H395        H  0.49493532  0.45314936  0.13310295     0.13600
H396        H  0.45590248  0.49495688  0.13418333     0.14100
C397        C  0.33574207  0.32202923  0.23815622    -0.15500
C398        C  0.32556527  0.34052457  0.21635471    -0.30600
H399        H  0.34478427  0.30564537  0.22528739     0.13600
H400        H  0.31677429  0.35700801  0.22951846     0.14100
C401        C  0.60241817  0.61743557  0.22597472    -0.15500
C402        C  0.61959261  0.60673997  0.20319697    -0.30600
H403        H  0.58675476  0.62791317  0.21379709     0.13600
H404        H  0.63434307  0.59526314  0.21540104     0.14100
C405        C  0.47446202  0.48304748  0.31006848    -0.15500
C406        C  0.47127281  0.45092635  0.31128140    -0.30600
H407        H  0.45074458  0.48530478  0.31049738     0.13600
H408        H  0.49505035  0.44876786  0.31120017     0.14100
In409      In  0.58028282  0.57100683  0.83257498     1.36900
C410        C  0.55869924  0.60129827  0.88231956     0.78600
O411        O  0.52633249  0.54695017  0.80466142    -0.59900
O412        O  0.54357992  0.51295046  0.82638460    -0.50800
C413        C  0.61409201  0.59589469  0.76685917     0.71200
O414        O  0.62055649  0.57749150  0.78910638    -0.45700
C415        C  0.61483916  0.55148800  0.87853150     0.75900
O416        O  0.54209918  0.56871309  0.87519264    -0.57500
O417        O  0.59139333  0.53072842  0.85592852    -0.47600
O418        O  0.58721734  0.61966832  0.86355897    -0.53900
C419        C  0.51897372  0.51552396  0.81107944     0.86100
O420        O  0.59303381  0.60492985  0.77982081    -0.55800
O421        O  0.62270054  0.58352981  0.87627080    -0.59100
In422      In  0.37984402  0.36883303  0.84683056     1.36900
C423        C  0.39944119  0.34133858  0.90246084     0.78600
O424        O  0.43707409  0.39148689  0.83015484    -0.59900
O425        O  0.41456509  0.42413759  0.82344441    -0.50800
C426        C  0.35268726  0.33722658  0.78115322     0.71200
O427        O  0.37161938  0.32976313  0.80142113    -0.45700
C428        C  0.34408585  0.39100914  0.88801768     0.75900
O429        O  0.41458525  0.37406619  0.89502452    -0.57500
O430        O  0.37064824  0.41116214  0.86770717    -0.47600
O431        O  0.37299939  0.32181584  0.88184191    -0.53900
C432        C  0.44192648  0.42148995  0.82108511     0.86100
O433        O  0.34400587  0.35751483  0.79645520    -0.55800
O434        O  0.33361218  0.35832138  0.88555894    -0.59100
In435      In  0.58083245  0.57325162  0.59810129     1.36900
C436        C  0.60909857  0.55241014  0.54500857     0.78600
O437        O  0.55716339  0.51788565  0.62297224    -0.59900
O438        O  0.52284452  0.53774081  0.61164429    -0.50800
C439        C  0.60930894  0.60585901  0.66279332     0.71200
O440        O  0.61407180  0.58187284  0.65006161    -0.45700
C441        C  0.55984301  0.60858860  0.55464515     0.75900
O442        O  0.57630779  0.53727531  0.55242347    -0.57500
O443        O  0.54065247  0.58713430  0.58023464    -0.47600
O444        O  0.62871186  0.57912917  0.56508978    -0.53900
C445        C  0.52569214  0.51194684  0.62289782     0.86100
O446        O  0.59411840  0.61614280  0.64038424    -0.55800
O447        O  0.59128812  0.61424344  0.55268648    -0.59100
In448      In  0.37059045  0.37713711  0.61120837     1.36900
C449        C  0.33655692  0.39351067  0.55993388     0.78600
O450        O  0.39901153  0.43465890  0.62626176    -0.59900
O451        O  0.42887021  0.40874969  0.62699870    -0.50800
C452        C  0.34116281  0.34824570  0.67822846     0.71200
O453        O  0.32897291  0.36259436  0.65693399    -0.45700
C454        C  0.39249479  0.34551842  0.56425161     0.75900
O455        O  0.35763007  0.41512940  0.58365032    -0.57500
O456        O  0.40907495  0.37847960  0.56974689    -0.47600
O457        O  0.32976368  0.36202149  0.56448165    -0.53900
C458        C  0.42903244  0.43750160  0.63007679     0.86100
O459        O  0.36603556  0.34563807  0.66380673    -0.55800
O460        O  0.36409809  0.32773851  0.58331588    -0.59100
In461      In  0.31448430  0.84906782  0.99140519     1.36900
C462        C  0.32832666  0.88441556  0.54296165     0.78600
O463        O  0.33895094  0.81348448  0.51957844    -0.59900
O464        O  0.34980600  0.82952718  0.96855579    -0.50800
C465        C  0.24863589  0.79119484  0.99617101     0.71200
O466        O  0.26053839  0.79654378  0.50783927    -0.45700
C467        C  0.32830060  0.89070581  0.93067664     0.75900
O468        O  0.30135954  0.87438670  0.52234104    -0.57500
O469        O  0.33770139  0.86802480  0.93381010    -0.47600
O470        O  0.34610812  0.86987363  0.53611453    -0.53900
C471        C  0.35985614  0.82544114  0.00053464     0.86100
O472        O  0.26446581  0.80397817  0.96529226    -0.55800
O473        O  0.30920561  0.89048444  0.95744761    -0.59100
In474      In  0.51269209  0.84098314  0.98552537     1.36900
C475        C  0.54574339  0.88718449  0.92924999     0.78600
O476        O  0.46122524  0.82027475  0.95375374    -0.59900
O477        O  0.46012089  0.82794284  0.01237705    -0.50800
C478        C  0.51580936  0.78139575  0.98895739     0.71200
O479        O  0.52469939  0.80107376  0.96008078    -0.45700
C480        C  0.53859520  0.88477862  0.54455297     0.75900
O481        O  0.56306782  0.88415207  0.95596244    -0.57500
O482        O  0.50632018  0.86122250  0.54004300    -0.47600
O483        O  0.51286144  0.86484610  0.92993490    -0.53900
C484        C  0.44341188  0.82030746  0.98165201     0.86100
O485        O  0.52963647  0.80748729  0.51375128    -0.55800
O486        O  0.55338728  0.86879088  0.03211806    -0.59100
In487      In  0.51612878  0.63581491  0.96349069     1.36900
C488        C  0.54478547  0.62243868  0.52723835     0.78600
O489        O  0.46070136  0.60472248  0.50433959    -0.59900
O490        O  0.46736831  0.60656923  0.92698973    -0.50800
C491        C  0.52182818  0.69980302  0.96235044     0.71200
O492        O  0.52497414  0.68890497  0.49455767    -0.45700
C493        C  0.54477622  0.61516423  0.91075664     0.75900
O494        O  0.56174287  0.64134437  0.49908478    -0.57500
O495        O  0.51627258  0.59451038  0.92819761    -0.47600
O496        O  0.51236147  0.61326908  0.52836436    -0.53900
C497        C  0.44621249  0.59105523  0.95415816     0.86100
O498        O  0.52574665  0.68575372  0.93351108    -0.55800
O499        O  0.55945028  0.64739388  0.92004637    -0.59100
In500      In  0.31198928  0.43687671  0.96785906     1.36900
C501        C  0.32930688  0.40583865  0.91439596     0.78600
O502        O  0.34878928  0.49102872  0.94223898    -0.59900
O503        O  0.34084002  0.48731524  0.00133378    -0.50800
C504        C  0.24778123  0.43091881  0.96157327     0.71200
O505        O  0.26594109  0.43197406  0.93356190    -0.45700
C506        C  0.32431267  0.40563060  0.52776092     0.75900
O507        O  0.30593814  0.38782053  0.93908417    -0.57500
O508        O  0.33461758  0.43799656  0.52290665    -0.47600
O509        O  0.34153415  0.43877659  0.91573870    -0.53900
C510        C  0.35756955  0.50671816  0.97336670     0.86100
O511        O  0.26159979  0.42445037  0.49268990    -0.55800
O512        O  0.29836077  0.39563827  0.01446405    -0.59100
In513      In  0.10349151  0.63887299  0.97897908     1.36900
C514        C  0.05117130  0.61502662  0.92858169     0.78600
O515        O  0.12381281  0.60968786  0.94487843    -0.59900
O516        O  0.11932219  0.60116079  0.00385425    -0.50800
C517        C  0.16247525  0.70369376  0.97349317     0.71200
O518        O  0.14713528  0.68468332  0.94551392    -0.45700
C519        C  0.05359989  0.60991947  0.53938621     0.75900
O520        O  0.07148746  0.64783132  0.93440054    -0.57500
O521        O  0.06970104  0.59378763  0.53154964    -0.47600
O522        O  0.05737251  0.59500814  0.94870535    -0.53900
C523        C  0.12616786  0.59276154  0.97247830     0.86100
O524        O  0.14518867  0.67375546  0.52080454    -0.55800
O525        O  0.06217618  0.64546061  0.01094352    -0.59100
In526      In  0.10417480  0.43832217  0.98280288     1.36900
C527        C  0.05193643  0.40550943  0.53484090     0.78600
O528        O  0.13120186  0.48251163  0.51766270    -0.59900
O529        O  0.11996897  0.49252761  0.95947032    -0.50800
C530        C  0.16275771  0.43285256  0.98543314     0.71200
O531        O  0.14391009  0.42303229  0.51645981    -0.45700
C532        C  0.06303877  0.40765963  0.92325223     0.75900
O533        O  0.06747152  0.38905519  0.52557657    -0.57500
O534        O  0.08548099  0.44044766  0.92487281    -0.47600
O535        O  0.06327327  0.43491768  0.51833185    -0.53900
C536        C  0.12856929  0.50112857  0.49200188     0.86100
O537        O  0.14958449  0.43550935  0.95492393    -0.55800
O538        O  0.06338585  0.38963391  0.95098265    -0.59100
In539      In  0.58172816  0.97542160  0.86144418     1.36900
C540        C  0.60824518  0.02179282  0.91749541     0.78600
O541        O  0.56041087  0.00951627  0.84051569    -0.59900
O542        O  0.52451765  0.95392161  0.84555340    -0.50800
C543        C  0.61131801  0.98048186  0.79413218     0.71200
O544        O  0.62033274  0.00697697  0.81457557    -0.45700
C545        C  0.56067942  0.91669140  0.90196205     0.75900
O546        O  0.57572921  0.00461416  0.90902027    -0.57500
O547        O  0.54028112  0.92182529  0.88133493    -0.47600
O548        O  0.62804053  0.01494977  0.89765029    -0.53900
C549        C  0.52878928  0.98400035  0.83768954     0.86100
O550        O  0.59117843  0.95104297  0.81024023    -0.55800
O551        O  0.59334745  0.94047328  0.89963061    -0.59100
In552      In  0.37859085  0.97152302  0.85181143     1.36900
C553        C  0.34210709  0.91735726  0.90011363     0.78600
O554        O  0.40287946  0.94075848  0.82940058    -0.59900
O555        O  0.43729672  0.99555359  0.84056668    -0.50800
C556        C  0.35432367  0.98114013  0.78610387     0.71200
O557        O  0.33877837  0.95175126  0.80351803    -0.45700
C558        C  0.40244444  0.02437235  0.90042902     0.75900
O559        O  0.36438949  0.91878853  0.87673518    -0.57500
O560        O  0.41955572  0.00969084  0.89085840    -0.47600
O561        O  0.33565937  0.94224570  0.89691445    -0.53900
C562        C  0.43448039  0.96659414  0.83095503     0.86100
O563        O  0.37998708  0.00558329  0.80354341    -0.55800
O564        O  0.37212162  0.01179913  0.88540840    -0.59100
In565      In  0.56513060  0.96080075  0.62546611     1.36900
C566        C  0.54964989  0.91013234  0.57543982     0.78600
O567        O  0.50854636  0.92978146  0.64620934    -0.59900
O568        O  0.53369614  0.98596189  0.64325055    -0.50800
C569        C  0.59494185  0.95931812  0.69100727     0.71200
O570        O  0.57892662  0.93274540  0.67012352    -0.45700
C571        C  0.59363509  0.01533665  0.57672279     0.75900
O572        O  0.52698532  0.91020783  0.59718914    -0.57500
O573        O  0.56062221  0.99559812  0.58241608    -0.47600
O574        O  0.58140740  0.93482920  0.58083401    -0.53900
C575        C  0.50543855  0.95663251  0.64952982     0.86100
O576        O  0.59888054  0.98757265  0.67677140    -0.55800
O577        O  0.61297671  0.00757160  0.59632086    -0.59100
In578      In  0.37005361  0.96775606  0.61711434     1.36900
C579        C  0.34051209  0.91247518  0.57111838     0.78600
O580        O  0.36020878  0.00803389  0.58583249    -0.59900
O581        O  0.40543924  0.00405764  0.57242003    -0.50800
C582        C  0.33898091  0.96337805  0.68322654     0.71200
O583        O  0.32822464  0.93712225  0.66191372    -0.45700
C584        C  0.43090423  0.97629977  0.64343396     0.75900
O585        O  0.32542290  0.92992993  0.57810100    -0.57500
O586        O  0.42705830  0.00214798  0.63506278    -0.47600
O587        O  0.36895988  0.92231581  0.58882103    -0.53900
C588        C  0.38807444  0.01916010  0.56590971     0.86100
O589        O  0.36243142  0.99246802  0.66872001    -0.55800
O590        O  0.40302075  0.94616516  0.64050468    -0.59100
In591      In  0.85054604  0.50782116  0.98292204     1.36900
C592        C  0.89209001  0.53061472  0.53549271     0.78600
O593        O  0.81697162  0.45100856  0.50940415    -0.59900
O594        O  0.83563976  0.45386356  0.96035337    -0.50800
C595        C  0.79131585  0.51150676  0.98740151     0.71200
O596        O  0.79956750  0.50552538  0.51129707    -0.45700
C597        C  0.89011749  0.53847637  0.92205102     0.75900
O598        O  0.87825104  0.54769333  0.52248832    -0.57500
O599        O  0.86721282  0.50575993  0.92423224    -0.47600
O600        O  0.88154363  0.50110046  0.52033116    -0.53900
C601        C  0.82177601  0.43525480  0.48263324     0.86100
O602        O  0.80719370  0.51466869  0.95672714    -0.55800
O603        O  0.89082209  0.55646818  0.94985389    -0.59100
In604      In  0.84973560  0.30545617  0.98208447     1.36900
C605        C  0.90155263  0.32916837  0.93027744     0.78600
O606        O  0.83097997  0.33622303  0.94792237    -0.59900
O607        O  0.83382740  0.34279995  0.00701598    -0.50800
C608        C  0.79044609  0.24107793  0.97826385     0.71200
O609        O  0.80371254  0.26159385  0.95031245    -0.45700
C610        C  0.88933999  0.32289653  0.53168439     0.75900
O611        O  0.88265806  0.29645277  0.93846030    -0.57500
O612        O  0.88097177  0.34272269  0.51427924    -0.47600
O613        O  0.89425602  0.34891176  0.94885778    -0.53900
C614        C  0.82819579  0.35247326  0.97547211     0.86100
O615        O  0.79311285  0.25930073  0.50231170    -0.55800
O616        O  0.89162725  0.30001116  0.01399334    -0.59100
In617      In  0.43795807  0.30814572  0.99048438     1.36900
C618        C  0.40613470  0.33035555  0.53720689     0.78600
O619        O  0.48543601  0.34520955  0.51962080    -0.59900
O620        O  0.49203963  0.34315724  0.96346739    -0.50800
C621        C  0.43260336  0.24409492  0.99237964     0.71200
O622        O  0.41831621  0.25133258  0.46958397    -0.45700
C623        C  0.41259432  0.32819845  0.93292206     0.75900
O624        O  0.39509921  0.29760391  0.53432049    -0.57500
O625        O  0.43907349  0.34936018  0.95223699    -0.47600
O626        O  0.43099564  0.35023767  0.51493264    -0.53900
C627        C  0.50459865  0.35796419  0.49055569     0.86100
O628        O  0.44582225  0.26532136  0.96484837    -0.55800
O629        O  0.39899088  0.29586052  0.94218265    -0.59100
In630      In  0.64302453  0.50828199  0.96470838     1.36900
C631        C  0.62875142  0.53778285  0.90720188     0.78600
O632        O  0.61000672  0.45571950  0.93654493    -0.59900
O633        O  0.60784327  0.45648726  0.99610591    -0.50800
C634        C  0.70788590  0.51561728  0.96301147     0.71200
O635        O  0.69405861  0.52147675  0.93495370    -0.45700
C636        C  0.62178139  0.53899152  0.51472748     0.75900
O637        O  0.64939214  0.55639137  0.93315754    -0.57500
O638        O  0.59980894  0.51435372  0.49407653    -0.47600
O639        O  0.61808646  0.50516507  0.90938584    -0.53900
C640        C  0.59554644  0.43870674  0.96645948     0.86100
O641        O  0.68279797  0.50326059  0.48377805    -0.55800
O642        O  0.65457711  0.54858969  0.01088751    -0.59100
In643      In  0.64120598  0.09475798  0.00351679     1.36900
C644        C  0.60736212  0.04468683  0.54908596     0.78600
O645        O  0.59607985  0.11341492  0.53249544    -0.59900
O646        O  0.60948834  0.11529487  0.97361007    -0.50800
C647        C  0.70653018  0.15254416  0.00457711     0.71200
O648        O  0.67406692  0.14225324  0.53036947    -0.45700
C649        C  0.62100006  0.04787447  0.94790094     0.75900
O650        O  0.64007197  0.06692884  0.54360323    -0.57500
O651        O  0.59973886  0.05333271  0.96650530    -0.47600
O652        O  0.58650768  0.04944630  0.52875929    -0.53900
C653        C  0.58135010  0.11828064  0.50447030     0.86100
O654        O  0.68822174  0.14170476  0.97506888    -0.55800
O655        O  0.65328203  0.06669688  0.95736408    -0.59100
In656      In  0.44823605  0.10534823  0.97759546     1.36900
C657        C  0.41768225  0.05361332  0.92721504     0.78600
O658        O  0.49910704  0.12171783  0.94582772    -0.59900
O659        O  0.50147258  0.12504416  0.00543228    -0.50800
C660        C  0.44405489  0.16436622  0.97121275     0.71200
O661        O  0.45256676  0.15172339  0.94432175    -0.45700
C662        C  0.40068971  0.04704453  0.53676239     0.75900
O663        O  0.40298640  0.07060101  0.93749435    -0.57500
O664        O  0.42856880  0.05540574  0.51846017    -0.47600
O665        O  0.44742228  0.06356902  0.94200491    -0.53900
C666        C  0.51761572  0.12741472  0.97503350     0.86100
O667        O  0.43384030  0.14563466  0.50640507    -0.55800
O668        O  0.40065461  0.06566566  0.01323821    -0.59100
In669      In  0.97287119  0.57177872  0.84771002     1.36900
C670        C  0.02289215  0.60048954  0.90025352     0.78600
O671        O  0.94207788  0.58471820  0.88978089    -0.59900
O672        O  0.91860214  0.53236126  0.86866188    -0.50800
C673        C  0.98306220  0.60491188  0.78148646     0.71200
O674        O  0.00781746  0.60532716  0.79987154    -0.45700
C675        C  0.96876604  0.51190306  0.82665258     0.75900
O676        O  0.01473626  0.61920038  0.88009265    -0.57500
O677        O  0.94230126  0.51605439  0.82649911    -0.47600
O678        O  0.00516833  0.56765917  0.89386484    -0.53900
C679        C  0.91684265  0.55277071  0.89190046     0.86100
O680        O  0.95350932  0.59065277  0.79860247    -0.55800
O681        O  0.99794639  0.53915406  0.83536403    -0.59100
In682      In  0.98042335  0.37458616  0.84869061     1.36900
C683        C  0.03613979  0.39319848  0.89345767     0.78600
O684        O  0.01348303  0.43174865  0.83080116    -0.59900
O685        O  0.95747234  0.40925338  0.83620047    -0.50800
C686        C  0.96753408  0.34243901  0.78188157     0.71200
O687        O  0.99770918  0.35600596  0.79727317    -0.45700
C688        C  0.92961538  0.34418860  0.90122726     0.75900
O689        O  0.03540042  0.41317703  0.86836116    -0.57500
O690        O  0.94396868  0.37634189  0.89122615    -0.47600
O691        O  0.01004707  0.36163450  0.89302451    -0.53900
C692        C  0.98747996  0.43659251  0.82936662     0.86100
O693        O  0.94400670  0.34255515  0.80198242    -0.55800
O694        O  0.94128351  0.32685832  0.88439275    -0.59100
In695      In  0.97041135  0.56495102  0.61612574     1.36900
C696        C  0.02494066  0.59578632  0.56767637     0.78600
O697        O  0.00167325  0.54369868  0.64424815    -0.59900
O698        O  0.94617818  0.50834189  0.63528531    -0.50800
C699        C  0.96379433  0.59326161  0.67939790     0.71200
O700        O  0.99347170  0.60438082  0.66327691    -0.45700
C701        C  0.91887356  0.54344769  0.56533610     0.75900
O702        O  0.01330776  0.56545016  0.58189392    -0.57500
O703        O  0.92821617  0.52334514  0.58029399    -0.47600
O704        O  0.00935408  0.61167263  0.57894746    -0.53900
C705        C  0.97564315  0.51222903  0.64574113     0.86100
O706        O  0.93739883  0.57022874  0.66134377    -0.55800
O707        O  0.93501804  0.57491333  0.57728903    -0.59100
In708      In  0.96913304  0.36986448  0.61084885     1.36900
C709        C  0.91654608  0.33736836  0.56122489     0.78600
O710        O  0.93493367  0.38846090  0.63667545    -0.59900
O711        O  0.99035059  0.42583210  0.62934127    -0.50800
C712        C  0.97940489  0.34681682  0.67672226     0.71200
O713        O  0.00453556  0.36661300  0.65464537    -0.45700
C714        C  0.02283074  0.39215852  0.56241716     0.75900
O715        O  0.93090562  0.36950654  0.56978994    -0.57500
O716        O  0.01192468  0.41180445  0.57473271    -0.47600
O717        O  0.92836726  0.32031109  0.57892349    -0.53900
C718        C  0.96010080  0.42016548  0.63951479     0.86100
O719        O  0.94865728  0.33526084  0.66325255    -0.55800
O720        O  0.00656725  0.36068062  0.57526915    -0.59100
C721        C  0.98062329  0.48215559  0.65403558    -0.15500
C722        C  0.95364757  0.44868374  0.65012093    -0.30600
H723        H  0.00790103  0.48768455  0.65606366     0.13600
H724        H  0.92631462  0.44304193  0.64848527     0.14100
C725        C  0.96006031  0.33066421  0.74241804    -0.15500
C726        C  0.98612037  0.34184146  0.71647758    -0.30600
H727        H  0.93260691  0.31931293  0.73320501     0.13600
H728        H  0.01376246  0.35472330  0.72547585     0.14100
C729        C  0.98798182  0.61601152  0.74160208    -0.15500
C730        C  0.96001916  0.60247238  0.71821886    -0.30600
H731        H  0.01476583  0.62725085  0.73004666     0.13600
H732        H  0.93311972  0.58979625  0.72980032     0.14100
C733        C  0.96476382  0.47696214  0.82048966    -0.15500
C734        C  0.99257048  0.47210196  0.82321149    -0.30600
H735        H  0.93786723  0.45420539  0.81828483     0.13600
H736        H  0.01952273  0.49483062  0.82506303     0.14100
C737        C  0.57048227  0.13126769  0.00473562    -0.15500
C738        C  0.55377253  0.13243258  0.97345814    -0.30600
H739        H  0.53922613  0.12055565  0.53637050     0.13600
H740        H  0.56400107  0.13110277  0.94600819     0.14100
C741        C  0.44302288  0.19751856  0.96731141    -0.15500
C742        C  0.43136326  0.20971489  0.99511311    -0.30600
H743        H  0.45260619  0.21250455  0.94103890     0.13600
H744        H  0.44310663  0.20694398  0.52750078     0.14100
C745        C  0.54489229  0.38587621  0.99667612    -0.15500
C746        C  0.56442410  0.40216562  0.96572103    -0.30600
H747        H  0.54994930  0.40273677  0.51893279     0.13600
H748        H  0.55450220  0.39061664  0.93827744     0.14100
C749        C  0.75678940  0.20659252  0.97591478    -0.15500
C750        C  0.74182908  0.18535348  0.00617442    -0.30600
H751        H  0.74335184  0.19919910  0.94893098     0.13600
H752        H  0.75514189  0.19286064  0.03321608     0.14100
C753        C  0.75799830  0.51224491  0.99054238    -0.15500
C754        C  0.74282304  0.51801089  0.96060053    -0.30600
H755        H  0.74518336  0.50697173  0.01801998     0.13600
H756        H  0.75580345  0.52356784  0.93318526     0.14100
C757        C  0.82223897  0.38253585  0.97011845    -0.15500
C758        C  0.82369140  0.40299062  0.99875653    -0.30600
H759        H  0.82133983  0.39073199  0.94136853     0.13600
H760        H  0.82469116  0.39494051  0.02754179     0.14100
C761        C  0.47054119  0.95320666  0.65625849    -0.15500
C762        C  0.46606761  0.98115894  0.65228263    -0.30600
H763        H  0.44742106  0.92651262  0.65827184     0.13600
H764        H  0.48915031  0.00781632  0.64962999     0.14100
C765        C  0.32877277  0.95933499  0.72344707    -0.15500
C766        C  0.34672704  0.98661396  0.74696261    -0.30600
H767        H  0.31293406  0.93246770  0.73475875     0.13600
H768        H  0.36321244  0.01329328  0.73534508     0.14100
C769        C  0.61934192  0.98433090  0.75331576    -0.15500
C770        C  0.60398059  0.95615571  0.73045224    -0.30600
H771        H  0.63158857  0.01095315  0.74126916     0.13600
H772        H  0.59175738  0.92950927  0.74243724     0.14100
C773        C  0.49897342  0.98955006  0.82918895    -0.15500
C774        C  0.46545119  0.96215882  0.82572784    -0.30600
H775        H  0.50409180  0.01657811  0.83038596     0.13600
H776        H  0.46041480  0.93517976  0.82407036     0.14100
C777        C  0.13324659  0.54356957  0.99656725    -0.15500
C778        C  0.13296856  0.56330422  0.96746761    -0.30600
H779        H  0.13328793  0.55198071  0.02523034     0.13600
H780        H  0.13301323  0.55484062  0.93884528     0.14100
C781        C  0.21354939  0.43004211  0.95784328    -0.15500
C782        C  0.19543651  0.43074451  0.98812039    -0.30600
H783        H  0.20381556  0.43018676  0.92971006     0.13600
H784        H  0.20533443  0.43059484  0.01616660     0.14100
C785        C  0.38761047  0.54352220  0.97765228    -0.15500
C786        C  0.40905931  0.56194895  0.94849012    -0.30600
H787        H  0.39553820  0.55317032  0.00611298     0.13600
H788        H  0.40128388  0.55219352  0.92003878     0.14100
C789        C  0.51629702  0.74793822  0.99098898    -0.15500
C790        C  0.52342380  0.73431350  0.96080156    -0.30600
H791        H  0.50953116  0.73363171  0.01775654     0.13600
H792        H  0.52949936  0.74826121  0.93384572     0.14100
C793        C  0.21327303  0.75835267  0.99965387    -0.15500
C794        C  0.19590464  0.73848783  0.96974593    -0.30600
H795        H  0.20916233  0.73878059  0.44195438     0.13600
H796        H  0.20726675  0.74722094  0.94170609     0.14100
C797        C  0.40729307  0.81516403  0.97737910    -0.15500
C798        C  0.38948830  0.81865788  0.00632095    -0.30600
H799        H  0.39724866  0.81295606  0.94894738     0.13600
H800        H  0.39431824  0.80429355  0.52635603     0.14100
C801        C  0.49444216  0.47689787  0.63230832    -0.15500
C802        C  0.46167135  0.47244889  0.63402504    -0.30600
H803        H  0.49789738  0.45399825  0.63345028     0.13600
H804        H  0.45860518  0.49559821  0.63302687     0.14100
C805        C  0.34595990  0.32707871  0.74114617    -0.15500
C806        C  0.33043588  0.33978915  0.71823046    -0.30600
H807        H  0.36071280  0.31572496  0.72906653     0.13600
H808        H  0.31547770  0.35094493  0.73022907     0.14100
C809        C  0.62654487  0.60178299  0.72742024    -0.15500
C810        C  0.61581932  0.61738772  0.70230974    -0.30600
H811        H  0.63814040  0.58648156  0.71758271     0.13600
H812        H  0.60420377  0.63268038  0.71211339     0.14100
C813        C  0.48345186  0.48428056  0.80481938    -0.15500
C814        C  0.47756353  0.45157909  0.81202716    -0.30600
H815        H  0.46124221  0.48842556  0.79967889     0.13600
H816        H  0.49999788  0.44767150  0.81671015     0.14100
loop_ 
_geom_bond_atom_site_label_1 
_geom_bond_atom_site_label_2 
_geom_bond_distance 
_geom_bond_site_symmetry_2 
_ccdc_geom_bond_type 
In1           O3   2.253       .  S
In1           O4   2.242       .  S
In1          O12   2.267       .  S
In1           O6   2.254       .  S
In1           O8   2.215       .  S
In1           O9   2.232       .  S
In1          O10   2.273       .  S
In1          O13   2.270       .  S
C2            O8   1.257       .  A
C2           O10   1.265       .  A
C2           C85   1.462       .  S
O3           C11   1.259       .  A
O4           C11   1.260       .  A
C5           O12   1.259       .  A
C5            O6   1.255       .  A
C5          C401   1.476       .  S
C7            O9   1.258       .  A
C7           O13   1.263       .  A
C7          C223   1.466       .  S
C11         C405   1.471       .  S
In14         O16   2.247       .  S
In14         O17   2.248       .  S
In14         O25   2.241       .  S
In14         O19   2.273       .  S
In14         O21   2.236       .  S
In14         O22   2.216       .  S
In14         O23   2.271       .  S
In14         O26   2.272       .  S
C15          O21   1.257       .  A
C15          O23   1.262       .  A
C15         C215   1.467       .  S
O16          C24   1.259       .  A
O17          C24   1.260       .  A
C18          O25   1.255       .  A
C18          O19   1.258       .  A
C18         C397   1.477       .  S
C20          O22   1.259       .  A
C20          O26   1.265       .  A
C20          C93   1.465       .  S
C24         C406   1.470       .  S
In27         O29   2.246       .  S
In27         O30   2.253       .  S
In27         O38   2.265       .  S
In27         O32   2.250       .  S
In27         O34   2.218       .  S
In27         O35   2.230       .  S
In27         O36   2.279       .  S
In27         O39   2.289       .  S
C28          O34   1.258       .  A
C28          O36   1.265       .  A
C28         C228   1.467       .  S
O29          C37   1.258       .  A
O30          C37   1.261       .  A
C31          O38   1.260       .  A
C31          O32   1.256       .  A
C31         C402   1.476       .  S
C33          O35   1.257       .  A
C33          O39   1.264       .  A
C33          C80   1.473       .  S
C37         C393   1.472       .  S
In40         O42   2.248       .  S
In40         O43   2.252       .  S
In40         O51   2.271       .  S
In40         O45   2.251       .  S
In40         O47   2.215       .  S
In40         O48   2.230       .  S
In40         O49   2.280       .  S
In40         O52   2.274       .  S
C41          O47   1.257       .  A
C41          O49   1.266       .  A
C41          C98   1.466       .  S
O42          C50   1.258       .  A
O43          C50   1.261       .  A
C44          O51   1.257       .  A
C44          O45   1.255       .  A
C44         C398   1.474       .  S
C46          O48   1.258       .  A
C46          O52   1.264       .  A
C46         C210   1.468       .  S
C50         C394   1.472       .  S
In53         O56   2.242       .  S
In53         O64   2.247       .  S
In53         O61   2.219       .  S
In53         O65   2.265       .  S
In53        O463   2.248       .  S
In53        O466   2.257       .  S
In53        O468   2.284       .  S
In53        O470   2.226       .  S
C54          O60   1.264       .  A
C54          O62   1.257       .  A
C54         C171   1.466       .  S
O55        In461   2.257   1_554  S
O55         C471   1.260       .  A
O56          C63   1.263       .  A
C57          O64   1.257       .  A
C57         O466   1.262       .  A
C57         C385   1.475       .  S
O58        In461   2.262   1_554  S
O58         C465   1.256   1_554  A
C59          O61   1.256       .  A
C59          O65   1.260       .  A
C59         C145   1.458       .  S
O60        In461   2.281   1_554  S
O62        In461   2.219   1_554  S
C63         O463   1.262       .  A
C63         C390   1.475       .  S
In66         O68   2.245       .  S
In66         O69   2.253       .  S
In66         O71   2.270       .  S
In66         O73   2.283       .  S
In66         O75   2.222       .  S
In66         O78   2.266       .  S
In66        O485   2.254       .  S
In66        O482   2.230       .  S
C67          O73   1.264       .  A
C67          O75   1.255       .  A
C67         C137   1.466       .  S
O68          C76   1.260       .  A
O69          C76   1.262       .  A
C70          O71   1.259       .  A
C70         O485   1.255       .  A
C70         C381   1.476       .  S
C72          O74   1.258       .  A
C72         O486   1.263       .  A
C72         C158   1.466       .  S
O74        In474   2.223   1_554  S
C76         C389   1.474       .  S
O77        In474   2.260   1_554  S
O77         C478   1.257   1_554  A
O78         C480   1.262       .  A
In79         O82   2.255       .  S
In79         O90   2.250       .  S
In79         O87   2.219       .  S
In79         O91   2.268       .  S
In79        O489   2.251       .  S
In79        O492   2.263       .  S
In79        O494   2.272       .  S
In79        O496   2.235       .  S
C80          O86   1.262   1_554  A
C80          O88   1.257       .  A
O81        In487   2.255       .  S
O81         C497   1.261       .  A
O82          C89   1.262       .  A
C83          O90   1.255       .  A
C83         O492   1.260       .  A
C83         C382   1.475       .  S
O84        In487   2.264       .  S
O84         C491   1.259       .  A
C85          O87   1.259       .  A
C85          O91   1.263       .  A
O86        In487   2.289       .  S
O88        In487   2.236   1_554  S
C89         O489   1.260       .  A
C89         C378   1.476       .  S
In92         O94   2.263       .  S
In92         O95   2.248       .  S
In92         O97   2.256       .  S
In92         O99   2.277       .  S
In92        O101   2.225       .  S
In92        O104   2.271       .  S
In92        O511   2.262       .  S
In92        O508   2.231       .  S
C93          O99   1.263       .  A
C93         O101   1.258       .  A
O94         C102   1.260       .  A
O95         C102   1.260       .  A
C96          O97   1.256       .  A
C96         O511   1.258       .  A
C96         C373   1.475       .  S
C98         O100   1.258       .  A
C98         O512   1.264       .  A
O100       In500   2.222   1_554  S
C102        C377   1.477       .  S
O103       In500   2.260       .  S
O103        C504   1.259       .  A
O104        C506   1.262       .  A
In105       O107   2.242       .  S
In105       O108   2.261       .  S
In105       O110   2.265       .  S
In105       O112   2.288       .  S
In105       O114   2.226       .  S
In105       O117   2.276       .  S
In105       O524   2.254       .  S
In105       O521   2.233       .  S
C106        O112   1.262       .  A
C106        O114   1.255       .  A
C106        C262   1.467       .  S
O107        C115   1.260       .  A
O108        C115   1.264       .  A
C109        O110   1.259       .  A
C109        O524   1.255       .  A
C109        C386   1.475       .  S
C111        O113   1.260       .  A
C111        O525   1.262       .  A
C111        C288   1.468       .  S
O113       In513   2.231   1_554  S
C115        C370   1.476       .  S
O116       In513   2.270   1_554  S
O116        C517   1.259   1_554  A
O117        C519   1.260       .  A
In118       O121   2.250       .  S
In118       O129   2.255       .  S
In118       O126   2.242       .  S
In118       O130   2.260       .  S
In118       O528   2.257       .  S
In118       O531   2.258       .  S
In118       O533   2.268       .  S
In118       O535   2.232       .  S
C119        O125   1.263       .  A
C119        O127   1.258       .  A
C119        C306   1.466       .  S
O120       In526   2.263   1_554  S
O120        C128   1.260   1_554  A
O121        C536   1.262       .  A
C122        O129   1.258       .  A
C122        O531   1.257       .  A
C122        C374   1.475       .  S
O123       In526   2.254   1_554  S
O123        C530   1.256   1_554  A
C124        O126   1.261       .  A
C124        O130   1.260       .  A
C124        C275   1.466       .  S
O125       In526   2.272   1_554  S
O127       In526   2.231   1_554  S
C128        O529   1.260       .  A
C128        C777   1.479       .  S
In131       O133   2.238   1_565  S
In131       O134   2.247       .  S
In131       O142   2.241       .  S
In131       O136   2.267   1_565  S
In131       O138   2.224   1_565  S
In131       O139   2.222       .  S
In131       O140   2.286   1_565  S
In131       O143   2.276       .  S
C132        O138   1.254       .  A
C132        O140   1.264       .  A
C132        C241   1.467       .  S
O133        C141   1.259   1_545  A
O134        C141   1.263       .  A
C135        O142   1.257       .  A
C135        O136   1.259   1_565  A
C135        C361   1.476       .  S
C137        O139   1.259       .  A
C137        O143   1.264       .  A
C141        C365   1.469       .  S
In144       O146   2.252       .  S
In144       O147   2.241       .  S
In144       O155   2.247       .  S
In144       O149   2.249       .  S
In144       O151   2.213       .  S
In144       O152   2.225   1_565  S
In144       O153   2.259       .  S
In144       O156   2.279       .  S
C145        O151   1.258       .  A
C145        O153   1.264       .  A
O146        C154   1.259       .  A
O147        C154   1.261       .  A
C148        O155   1.258       .  A
C148        O149   1.257       .  A
C148        C358   1.472       .  S
C150        O152   1.257       .  A
C150        O156   1.263   1_545  A
C150        C249   1.467       .  S
C154        C366   1.470       .  S
In157       O159   2.256       .  S
In157       O160   2.236       .  S
In157       O168   2.263       .  S
In157       O162   2.245       .  S
In157       O164   2.216       .  S
In157       O165   2.220   1_565  S
In157       O166   2.278       .  S
In157       O169   2.268       .  S
C158        O164   1.257       .  A
C158        O166   1.266       .  A
O159        C167   1.259       .  A
O160        C167   1.260       .  A
C161        O168   1.259       .  A
C161        O162   1.257       .  A
C161        C362   1.473       .  S
C163        O165   1.257       .  A
C163        O169   1.264   1_545  A
C163        C236   1.463       .  S
C167        C353   1.472       .  S
In170       O172   2.279   1_565  S
In170       O173   2.212   1_565  S
In170       O181   2.249   1_565  S
In170       O175   2.250       .  S
In170       O177   2.280       .  S
In170       O178   2.229   1_565  S
In170       O179   2.218       .  S
In170       O182   2.263       .  S
C171        O177   1.264       .  A
C171        O179   1.258       .  A
O172        C180   1.264       .  A
O173        C180   1.256       .  A
C174        O181   1.257   1_565  A
C174        O175   1.259       .  A
C174        C357   1.472       .  S
C176        O178   1.257   1_565  A
C176        O182   1.262       .  A
C176        C354   1.469       .  S
C180        C254   1.464       .  S
In183       O186   2.260       .  S
In183       O194   2.272       .  S
In183       O191   2.240       .  S
In183       O195   2.262       .  S
In183       O593   2.264       .  S
In183       O596   2.253       .  S
In183       O598   2.277       .  S
In183       O600   2.230       .  S
C184        O190   1.263       .  A
C184        O192   1.258       .  A
C184        C293   1.460       .  S
O185       In591   2.256   1_554  S
O185        C193   1.258   1_554  A
O186        C601   1.261       .  A
C187        O194   1.258       .  A
C187        O596   1.255       .  A
C187        C345   1.475       .  S
O188       In591   2.250   1_554  S
O188        C595   1.255   1_554  A
C189        O191   1.260       .  A
C189        O195   1.261       .  A
C189        C271   1.467       .  S
O190       In591   2.268   1_554  S
O192       In591   2.217   1_554  S
C193        O594   1.261       .  A
C193        C758   1.479       .  S
In196       O198   2.250       .  S
In196       O199   2.274       .  S
In196       O201   2.252       .  S
In196       O203   2.265       .  S
In196       O205   2.230       .  S
In196       O208   2.288       .  S
In196       O615   2.264       .  S
In196       O612   2.222       .  S
C197        O203   1.260       .  A
C197        O205   1.258       .  A
C197        C280   1.460       .  S
O198        C206   1.258       .  A
O199        C206   1.263       .  A
C200        O201   1.254       .  A
C200        O615   1.258       .  A
C200        C341   1.473       .  S
C202        O204   1.261       .  A
C202        O616   1.262       .  A
C202        C301   1.466       .  S
O204       In604   2.235   1_554  S
C206        C349   1.480       .  S
O207       In604   2.264   1_554  S
O207        C608   1.258   1_554  A
O208        C610   1.263       .  A
In209       O212   2.262       .  S
In209       O220   2.265       .  S
In209       O217   2.235       .  S
In209       O221   2.263       .  S
In209       O619   2.254       .  S
In209       O622   2.272       .  S
In209       O624   2.281       .  S
In209       O626   2.215       .  S
C210        O216   1.261       .  A
C210        O218   1.259       .  A
O211       In617   2.253   1_554  S
O211        C219   1.260   1_554  A
O212        C627   1.262       .  A
C213        O220   1.256       .  A
C213        O622   1.258       .  A
C213        C334   1.481       .  S
O214       In617   2.264   1_554  S
O214        C621   1.257   1_554  A
C215        O217   1.261       .  A
C215        O221   1.262       .  A
O216       In617   2.273   1_554  S
O218       In617   2.235   1_554  S
C219        O620   1.262       .  A
C219        C745   1.478       .  S
In222       O224   2.257       .  S
In222       O225   2.255       .  S
In222       O227   2.262       .  S
In222       O229   2.264       .  S
In222       O231   2.238       .  S
In222       O234   2.290       .  S
In222       O641   2.259       .  S
In222       O638   2.217       .  S
C223        O229   1.261       .  A
C223        O231   1.259       .  A
O224        C232   1.261       .  A
O225        C232   1.261       .  A
C226        O227   1.257       .  A
C226        O641   1.259       .  A
C226        C346   1.477       .  S
C228        O230   1.257   1_554  A
C228        O642   1.264       .  A
O230       In630   2.222       .  S
C232        C338   1.479       .  S
O233       In630   2.266       .  S
O233        C634   1.260       .  A
O234        C636   1.264       .  A
In235       O238   2.266       .  S
In235       O246   2.259       .  S
In235       O243   2.230       .  S
In235       O247   2.276       .  S
In235       O645   2.260       .  S
In235       O648   2.259       .  S
In235       O650   2.277       .  S
In235       O652   2.231       .  S
C236        O242   1.261       .  A
C236        O244   1.257       .  A
O237       In643   2.250       .  S
O237        C245   1.259       .  A
O238        C653   1.261       .  A
C239        O246   1.258       .  A
C239        O648   1.257       .  A
C239        C342   1.475       .  S
O240       In643   2.252       .  S
O240        C647   1.257       .  A
C241        O243   1.260       .  A
C241        O247   1.261       .  A
O242       In643   2.270       .  S
O244       In643   2.226       .  S
C245        O646   1.262   1_554  A
C245        C737   1.478       .  S
In248       O250   2.251       .  S
In248       O251   2.261       .  S
In248       O253   2.263       .  S
In248       O255   2.230       .  S
In248       O257   2.282       .  S
In248       O260   2.298       .  S
In248       O667   2.271       .  S
In248       O664   2.209       .  S
C249        O255   1.257       .  A
C249        O257   1.262       .  A
O250        C258   1.262       .  A
O251        C258   1.263       .  A
C252        O253   1.258       .  A
C252        O667   1.260       .  A
C252        C333   1.482       .  S
C254        O256   1.257       .  A
C254        O668   1.262       .  A
O256       In656   2.222   1_554  S
C258        C330   1.481       .  S
O259       In656   2.270   1_554  S
O259        C660   1.259   1_554  A
O260        C662   1.263       .  A
In261       O263   2.268       .  S
In261       O264   2.245       .  S
In261       O272   2.263       .  S
In261       O266   2.254   1_655  S
In261       O268   2.278   1_655  S
In261       O269   2.240       .  S
In261       O270   2.225   1_655  S
In261       O273   2.264       .  S
C262        O268   1.264       .  A
C262        O270   1.258       .  A
O263        C271   1.260       .  A
O264        C271   1.257       .  A
C265        O272   1.260       .  A
C265        O266   1.258   1_655  A
C265        C321   1.479       .  S
C267        O269   1.260       .  A
C267        O273   1.259       .  A
C267        C325   1.474       .  S
In274       O276   2.273       .  S
In274       O277   2.228       .  S
In274       O285   2.267       .  S
In274       O279   2.253   1_655  S
In274       O281   2.231   1_655  S
In274       O282   2.219       .  S
In274       O283   2.260   1_655  S
In274       O286   2.252       .  S
C275        O281   1.258       .  A
C275        O283   1.264       .  A
O276        C284   1.263       .  A
O277        C284   1.255       .  A
C278        O285   1.257       .  A
C278        O279   1.259   1_655  A
C278        C317   1.478       .  S
C280        O282   1.260       .  A
C280        O286   1.265       .  A
C284        C326   1.469       .  S
In287       O289   2.234   1_655  S
In287       O290   2.246       .  S
In287       O298   2.245       .  S
In287       O292   2.273       .  S
In287       O294   2.227   1_655  S
In287       O295   2.209       .  S
In287       O296   2.282   1_655  S
In287       O299   2.267       .  S
C288        O294   1.255       .  A
C288        O296   1.264       .  A
O289        C297   1.258   1_455  A
O290        C297   1.262       .  A
C291        O298   1.254       .  A
C291        O292   1.261       .  A
C291        C322   1.477       .  S
C293        O295   1.258       .  A
C293        O299   1.265       .  A
C297        C313   1.467       .  S
In300       O302   2.251       .  S
In300       O303   2.239       .  S
In300       O311   2.234   1_655  S
In300       O305   2.283       .  S
In300       O307   2.234       .  S
In300       O308   2.223   1_655  S
In300       O309   2.273       .  S
In300       O312   2.265   1_655  S
C301        O307   1.255       .  A
C301        O309   1.262       .  A
O302        C310   1.258       .  A
O303        C310   1.261       .  A
C304        O311   1.252   1_655  A
C304        O305   1.262       .  A
C304        C318   1.474       .  S
C306        O308   1.260       .  A
C306        O312   1.265       .  A
C310        C314   1.469       .  S
C313        C314   1.339       .  D
C313        H315   1.088   1_655  S
C314        H316   1.088       .  S
C317        C318   1.341       .  D
C317        H319   1.087       .  S
C318        H320   1.088   1_655  S
C321        C322   1.344       .  D
C321        H323   1.087   1_655  S
C322        H324   1.087       .  S
C325        C326   1.340       .  D
C325        H327   1.086       .  S
C326        H328   1.087       .  S
C329        C653   1.482       .  S
C329        C330   1.345       .  D
C329        H739   1.087       .  S
C330        H332   1.087       .  S
H331        C737   1.087       .  S
C333        C334   1.345       .  D
C333        H335   1.088       .  S
C334        H744   1.088       .  S
H336        C742   1.087   1_554  S
C337        C627   1.478       .  S
C337        C338   1.345       .  D
C337        H747   1.087       .  S
C338        H340   1.086       .  S
H339        C745   1.086   1_554  S
C341        C342   1.342       .  D
C341        H343   1.087       .  S
C342        H344   1.086       .  S
C345        C346   1.342       .  D
C345        H347   1.087       .  S
C346        H348   1.087       .  S
C349        C350   1.344       .  D
C349        H351   1.087       .  S
C350        C601   1.481       .  S
C350        H352   1.087       .  S
C353        C354   1.341       .  D
C353        H355   1.086       .  S
C354        H356   1.086   1_565  S
C357        C358   1.342       .  D
C357        H359   1.087   1_565  S
C358        H360   1.087       .  S
C361        C362   1.344       .  D
C361        H363   1.086   1_565  S
C362        H364   1.086       .  S
C365        C366   1.340       .  D
C365        H367   1.088   1_565  S
C366        H368   1.088       .  S
C369        C536   1.477       .  S
C369        C370   1.342       .  D
C369        H371   1.086       .  S
C370        H372   1.087       .  S
C373        C374   1.343       .  D
C373        H375   1.087       .  S
C374        H376   1.087       .  S
C377        C378   1.344       .  D
C377        H379   1.087       .  S
C378        H380   1.087       .  S
C381        C382   1.341       .  D
C381        H383   1.087       .  S
C382        H384   1.087       .  S
C385        C386   1.342       .  D
C385        H795   1.087       .  S
C386        H388   1.087       .  S
H387        C793   1.087   1_554  S
C389        C390   1.343       .  D
C389        H391   1.087       .  S
C390        H800   1.087       .  S
H392        C798   1.087       .  S
C393        C394   1.341       .  D
C393        H395   1.089       .  S
C394        H396   1.089       .  S
C397        C398   1.345       .  D
C397        H399   1.085       .  S
C398        H400   1.086       .  S
C401        C402   1.343       .  D
C401        H403   1.087       .  S
C402        H404   1.087       .  S
C405        C406   1.342       .  D
C405        H407   1.089       .  S
C406        H408   1.089       .  S
In409       O411   2.262       .  S
In409       O412   2.218       .  S
In409       O420   2.263       .  S
In409       O414   2.243       .  S
In409       O416   2.214       .  S
In409       O417   2.210       .  S
In409       O418   2.289       .  S
In409       O421   2.262       .  S
C410        O416   1.255       .  A
C410        O418   1.265       .  A
C410        C493   1.466       .  S
O411        C419   1.261       .  A
O412        C419   1.259       .  A
C413        O420   1.261       .  A
C413        O414   1.254       .  A
C413        C809   1.474       .  S
C415        O417   1.258       .  A
C415        O421   1.265       .  A
C415        C631   1.458       .  S
C419        C813   1.469       .  S
In422       O424   2.240       .  S
In422       O425   2.247       .  S
In422       O433   2.263       .  S
In422       O427   2.257       .  S
In422       O429   2.222       .  S
In422       O430   2.223       .  S
In422       O431   2.279       .  S
In422       O434   2.281       .  S
C423        O429   1.258       .  A
C423        O431   1.266       .  A
C423        C623   1.469       .  S
O424        C432   1.258       .  A
O425        C432   1.260       .  A
C426        O433   1.259       .  A
C426        O427   1.257       .  A
C426        C805   1.478       .  S
C428        O430   1.257       .  A
C428        O434   1.265       .  A
C428        C501   1.469       .  S
C432        C814   1.466       .  S
In435       O437   2.262       .  S
In435       O438   2.236       .  S
In435       O446   2.252       .  S
In435       O440   2.260       .  S
In435       O442   2.212       .  S
In435       O443   2.220       .  S
In435       O444   2.290       .  S
In435       O447   2.266       .  S
C436        O442   1.257       .  A
C436        O444   1.266       .  A
C436        C636   1.468       .  S
O437        C445   1.260       .  A
O438        C445   1.260       .  A
C439        O446   1.255       .  A
C439        O440   1.260       .  A
C439        C810   1.475       .  S
C441        O443   1.259       .  A
C441        O447   1.265       .  A
C441        C488   1.464       .  S
C445        C801   1.474       .  S
In448       O450   2.237       .  S
In448       O451   2.260       .  S
In448       O459   2.258       .  S
In448       O453   2.265       .  S
In448       O455   2.231       .  S
In448       O456   2.211       .  S
In448       O457   2.277       .  S
In448       O460   2.273       .  S
C449        O455   1.256       .  A
C449        O457   1.262       .  A
C449        C506   1.467       .  S
O450        C458   1.258       .  A
O451        C458   1.262       .  A
C452        O459   1.257       .  A
C452        O453   1.258       .  A
C452        C806   1.479       .  S
C454        O456   1.258       .  A
C454        O460   1.265       .  A
C454        C618   1.462       .  S
C458        C802   1.471       .  S
In461       O464   2.266       .  S
In461       O472   2.269       .  S
In461       O469   2.236       .  S
In461       O473   2.276       .  S
C462        O468   1.262       .  A
C462        O470   1.256       .  A
C462        C579   1.467       .  S
O464        C471   1.261   1_556  A
C465        O472   1.258       .  A
C465        C793   1.479       .  S
C467        O469   1.258       .  A
C467        O473   1.261       .  A
C467        C553   1.468       .  S
C471        C798   1.481       .  S
In474       O476   2.253       .  S
In474       O477   2.267   1_556  S
In474       O479   2.263       .  S
In474       O481   2.282       .  S
In474       O483   2.223       .  S
In474       O486   2.282   1_556  S
C475        O481   1.261       .  A
C475        O483   1.256       .  A
C475        C545   1.464       .  S
O476        C484   1.260       .  A
O477        C484   1.262   1_554  A
C478        O479   1.258       .  A
C478        C789   1.478       .  S
C480        O482   1.260       .  A
C480        C566   1.466       .  S
C484        C797   1.481       .  S
In487       O490   2.257       .  S
In487       O498   2.260       .  S
In487       O495   2.216       .  S
In487       O499   2.282       .  S
C488        O494   1.260       .  A
C488        O496   1.257       .  A
O490        C497   1.260       .  A
C491        O498   1.257       .  A
C491        C790   1.478       .  S
C493        O495   1.258       .  A
C493        O499   1.264       .  A
C497        C786   1.477       .  S
In500       O502   2.255       .  S
In500       O503   2.256   1_556  S
In500       O505   2.265       .  S
In500       O507   2.281       .  S
In500       O509   2.232       .  S
In500       O512   2.279   1_556  S
C501        O507   1.261       .  A
C501        O509   1.258       .  A
O502        C510   1.261       .  A
O503        C510   1.260   1_554  A
C504        O505   1.257       .  A
C504        C781   1.480       .  S
C506        O508   1.259       .  A
C510        C785   1.477       .  S
In513       O515   2.255       .  S
In513       O516   2.264   1_556  S
In513       O518   2.258       .  S
In513       O520   2.272       .  S
In513       O522   2.232       .  S
In513       O525   2.272   1_556  S
C514        O520   1.263       .  A
C514        O522   1.258       .  A
C514        C670   1.466       .  S
O515        C523   1.259       .  A
O516        C523   1.260   1_554  A
C517        O518   1.256       .  A
C517        C794   1.478       .  S
C519        O521   1.258       .  A
C519        C696   1.466       .  S
C523        C778   1.477       .  S
In526       O529   2.254       .  S
In526       O537   2.274       .  S
In526       O534   2.232       .  S
In526       O538   2.272       .  S
C527        O533   1.262       .  A
C527        O535   1.257       .  A
C527        C714   1.463       .  S
O528        C536   1.261       .  A
C530        O537   1.259       .  A
C530        C782   1.478       .  S
C532        O534   1.259       .  A
C532        O538   1.261       .  A
C532        C683   1.467       .  S
In539       O541   2.247   1_565  S
In539       O542   2.245       .  S
In539       O550   2.261       .  S
In539       O544   2.254   1_565  S
In539       O546   2.225   1_565  S
In539       O547   2.212       .  S
In539       O548   2.281   1_565  S
In539       O551   2.279       .  S
C540        O546   1.257       .  A
C540        O548   1.266       .  A
C540        C649   1.469       .  S
O541        C549   1.259   1_545  A
O542        C549   1.261       .  A
C543        O550   1.259       .  A
C543        O544   1.257   1_565  A
C543        C769   1.479       .  S
C545        O547   1.258       .  A
C545        O551   1.265       .  A
C549        C773   1.471       .  S
In552       O554   2.249       .  S
In552       O555   2.248       .  S
In552       O563   2.241   1_565  S
In552       O557   2.281       .  S
In552       O559   2.235       .  S
In552       O560   2.215   1_565  S
In552       O561   2.283       .  S
In552       O564   2.275   1_565  S
C553        O559   1.255       .  A
C553        O561   1.262       .  A
O554        C562   1.260       .  A
O555        C562   1.262       .  A
C556        O563   1.253   1_565  A
C556        O557   1.260       .  A
C556        C766   1.475       .  S
C558        O560   1.258       .  A
C558        O564   1.264       .  A
C558        C657   1.464       .  S
C562        C774   1.472       .  S
In565       O567   2.241       .  S
In565       O568   2.249       .  S
In565       O576   2.268       .  S
In565       O570   2.260       .  S
In565       O572   2.228       .  S
In565       O573   2.227       .  S
In565       O574   2.276       .  S
In565       O577   2.280   1_565  S
C566        O572   1.256       .  A
C566        O574   1.263       .  A
O567        C575   1.258       .  A
O568        C575   1.261       .  A
C569        O576   1.259       .  A
C569        O570   1.257       .  A
C569        C770   1.480       .  S
C571        O573   1.258   1_545  A
C571        O577   1.266       .  A
C571        C644   1.469       .  S
C575        C761   1.470       .  S
In578       O580   2.295   1_565  S
In578       O581   2.205   1_565  S
In578       O589   2.249       .  S
In578       O583   2.259       .  S
In578       O585   2.281       .  S
In578       O586   2.246   1_565  S
In578       O587   2.219       .  S
In578       O590   2.243       .  S
C579        O585   1.265       .  A
C579        O587   1.257       .  A
O580        C588   1.265       .  A
O581        C588   1.255       .  A
C582        O589   1.259       .  A
C582        O583   1.258       .  A
C582        C765   1.478       .  S
C584        O586   1.260   1_565  A
C584        O590   1.261       .  A
C584        C762   1.471       .  S
C588        C662   1.466       .  S
In591       O594   2.263       .  S
In591       O602   2.260       .  S
In591       O599   2.226       .  S
In591       O603   2.262       .  S
C592        O598   1.262       .  A
C592        O600   1.257       .  A
C592        C701   1.465       .  S
O593        C601   1.260       .  A
C595        O602   1.259       .  A
C595        C753   1.475       .  S
C597        O599   1.261       .  A
C597        O603   1.261       .  A
C597        C679   1.461       .  S
In604       O606   2.248       .  S
In604       O607   2.267   1_556  S
In604       O609   2.257       .  S
In604       O611   2.283       .  S
In604       O613   2.225       .  S
In604       O616   2.264   1_556  S
C605        O611   1.264       .  A
C605        O613   1.257       .  A
C605        C688   1.468       .  S
O606        C614   1.258       .  A
O607        C614   1.262   1_554  A
C608        O609   1.255       .  A
C608        C749   1.475       .  S
C610        O612   1.258       .  A
C610        C709   1.469       .  S
C614        C757   1.478       .  S
In617       O620   2.258       .  S
In617       O628   2.273       .  S
In617       O625   2.228       .  S
In617       O629   2.282       .  S
C618        O624   1.264       .  A
C618        O626   1.256       .  A
O619        C627   1.259       .  A
C621        O628   1.259       .  A
C621        C742   1.481       .  S
C623        O625   1.258       .  A
C623        O629   1.263       .  A
In630       O632   2.243       .  S
In630       O633   2.264       .  S
In630       O635   2.253       .  S
In630       O637   2.264       .  S
In630       O639   2.218       .  S
In630       O642   2.284   1_556  S
C631        O637   1.261       .  A
C631        O639   1.257       .  A
O632        C640   1.258       .  A
O633        C640   1.263       .  A
C634        O635   1.256       .  A
C634        C754   1.476       .  S
C636        O638   1.257       .  A
C640        C746   1.477       .  S
In643       O646   2.260   1_554  S
In643       O654   2.256   1_554  S
In643       O651   2.233   1_554  S
In643       O655   2.277   1_554  S
C644        O650   1.263       .  A
C644        O652   1.259       .  A
O645        C653   1.259       .  A
C647        O654   1.259   1_554  A
C647        C750   1.475       .  S
C649        O651   1.259       .  A
C649        O655   1.262       .  A
In656       O658   2.250       .  S
In656       O659   2.255   1_556  S
In656       O661   2.262       .  S
In656       O663   2.284       .  S
In656       O665   2.222       .  S
In656       O668   2.277   1_556  S
C657        O663   1.262       .  A
C657        O665   1.255       .  A
O658        C666   1.261       .  A
O659        C666   1.263   1_554  A
C660        O661   1.257       .  A
C660        C741   1.481       .  S
C662        O664   1.255       .  A
C666        C738   1.478       .  S
In669       O671   2.271       .  S
In669       O672   2.219       .  S
In669       O680   2.264       .  S
In669       O674   2.240   1_655  S
In669       O676   2.268   1_655  S
In669       O677   2.239       .  S
In669       O678   2.228   1_655  S
In669       O681   2.247       .  S
C670        O676   1.264       .  A
C670        O678   1.259       .  A
O671        C679   1.263       .  A
O672        C679   1.254       .  A
C673        O680   1.260       .  A
C673        O674   1.255   1_655  A
C673        C729   1.472       .  S
C675        O677   1.257       .  A
C675        O681   1.262       .  A
C675        C733   1.468       .  S
In682       O684   2.240   1_655  S
In682       O685   2.247       .  S
In682       O693   2.240       .  S
In682       O687   2.287       .  S
In682       O689   2.230   1_655  S
In682       O690   2.224       .  S
In682       O691   2.282   1_655  S
In682       O694   2.276       .  S
C683        O689   1.255       .  A
C683        O691   1.263       .  A
O684        C692   1.257   1_455  A
O685        C692   1.263       .  A
C686        O693   1.252       .  A
C686        O687   1.261       .  A
C686        C725   1.477       .  S
C688        O690   1.260       .  A
C688        O694   1.265       .  A
C692        C734   1.468       .  S
In695       O697   2.238   1_655  S
In695       O698   2.238       .  S
In695       O706   2.248       .  S
In695       O700   2.255       .  S
In695       O702   2.222   1_655  S
In695       O703   2.224       .  S
In695       O704   2.280   1_655  S
In695       O707   2.271       .  S
C696        O702   1.254       .  A
C696        O704   1.264       .  A
O697        C705   1.260   1_455  A
O698        C705   1.264       .  A
C699        O706   1.257       .  A
C699        O700   1.260       .  A
C699        C730   1.474       .  S
C701        O703   1.258       .  A
C701        O707   1.263       .  A
C705        C721   1.468       .  S
In708       O710   2.234       .  S
In708       O711   2.239       .  S
In708       O719   2.261       .  S
In708       O713   2.247   1_655  S
In708       O715   2.210       .  S
In708       O716   2.222   1_655  S
In708       O717   2.294       .  S
In708       O720   2.260   1_655  S
C709        O715   1.254       .  A
C709        O717   1.267       .  A
O710        C718   1.259       .  A
O711        C718   1.263       .  A
C712        O719   1.263       .  A
C712        O713   1.257   1_655  A
C712        C726   1.479       .  S
C714        O716   1.260       .  A
C714        O720   1.264       .  A
C718        C722   1.467       .  S
C721        C722   1.338       .  D
C721        H723   1.089   1_655  S
C722        H724   1.088       .  S
C725        C726   1.342       .  D
C725        H727   1.087       .  S
C726        H728   1.087   1_655  S
C729        C730   1.342       .  D
C729        H731   1.087   1_655  S
C730        H732   1.087       .  S
C733        C734   1.338       .  D
C733        H735   1.086       .  S
C734        H736   1.086   1_655  S
C737        C738   1.344   1_554  D
C738        H740   1.087       .  S
C741        C742   1.345       .  D
C741        H743   1.087       .  S
C745        C746   1.343       .  D
C746        H748   1.087       .  S
C749        C750   1.343   1_556  D
C749        H751   1.086       .  S
C750        H752   1.086       .  S
C753        C754   1.341       .  D
C753        H755   1.087   1_556  S
C754        H756   1.087       .  S
C757        C758   1.343       .  D
C757        H759   1.086       .  S
C758        H760   1.086   1_556  S
C761        C762   1.341       .  D
C761        H763   1.086       .  S
C762        H764   1.086   1_565  S
C765        C766   1.343       .  D
C765        H767   1.087       .  S
C766        H768   1.087   1_565  S
C769        C770   1.344       .  D
C769        H771   1.086   1_565  S
C770        H772   1.086       .  S
C773        C774   1.341       .  D
C773        H775   1.088   1_565  S
C774        H776   1.088       .  S
C777        C778   1.344       .  D
C777        H779   1.086   1_556  S
C778        H780   1.086       .  S
C781        C782   1.344       .  D
C781        H783   1.087       .  S
C782        H784   1.087   1_556  S
C785        C786   1.344       .  D
C785        H787   1.086   1_556  S
C786        H788   1.087       .  S
C789        C790   1.344       .  D
C789        H791   1.087   1_556  S
C790        H792   1.087       .  S
C793        C794   1.344       .  D
C794        H796   1.087       .  S
C797        C798   1.345   1_556  D
C797        H799   1.087       .  S
C801        C802   1.342       .  D
C801        H803   1.089       .  S
C802        H804   1.089       .  S
C805        C806   1.345       .  D
C805        H807   1.086       .  S
C806        H808   1.085       .  S
C809        C810   1.340       .  D
C809        H811   1.086       .  S
C810        H812   1.086       .  S
C813        C814   1.341       .  D
C813        H815   1.089       .  S
C814        H816   1.089       .  S
