geometry optimzed in LAMMPS
_audit_creation_date              2020-11-30 
_audit_creation_method            'lammps2cif' 
_symmetry_space_group_name_H-M    'P1' 
_symmetry_Int_Tables_number       1 
_symmetry_cell_setting            triclinic 
loop_ 
_symmetry_equiv_pos_as_xyz 
  x,y,z 
_cell_length_a                    32.47235145 
_cell_length_b                    32.38239485735383 
_cell_length_c                    32.3255381438013 
_cell_angle_alpha                 89.94949654119812 
_cell_angle_beta                  89.20004731715238 
_cell_angle_gamma                 89.79296026607526 
loop_ 
_atom_site_label 
_atom_site_type_symbol 
_atom_site_fract_x 
_atom_site_fract_y 
_atom_site_fract_z 
_atom_site_charge 
C1          C  0.03798108  0.98188366  0.00778289     0.02500
C2          C  0.03340575  0.01260507  0.97686790     0.02500
C3          C  0.99826034  0.03863903  0.97784157     0.02500
C4          C  0.96718742  0.03258105  0.00865349     0.02500
C5          C  0.97090181  0.99989387  0.03803921     0.02500
C6          C  0.00677787  0.97477468  0.03783763     0.02500
O7          O  0.01413874  0.21406856  0.81065980    -0.79900
O8          O  0.97989834  0.32613319  0.81273492    -0.79900
O9          O  0.89906762  0.22674686  0.87692546    -0.79900
O10         O  0.10310162  0.28096904  0.86057386    -0.79900
O11         O  0.91666562  0.27159384  0.82854948    -0.80000
O12         O  0.08980193  0.21343674  0.85040556    -0.79900
O13         O  0.03800779  0.28953204  0.81229375    -0.79900
O14         O  0.95963567  0.18778201  0.83901949    -0.79900
C15         C  0.98380819  0.19047655  0.80821161     1.09800
C16         C  0.01322761  0.31397538  0.79530292     1.09700
C17         C  0.89111917  0.24632517  0.84372620     1.09800
C18         C  0.11439711  0.24476048  0.84803023     1.09700
O19         O  0.05000625  0.21943735  0.92580649    -0.79900
O20         O  0.91429095  0.29768612  0.91438390    -0.80000
O21         O  0.95042684  0.16337335  0.91698679    -0.79900
O22         O  0.04055421  0.34758547  0.87868865    -0.79900
O23         O  0.97483059  0.35223478  0.89744273    -0.79900
O24         O  0.01440391  0.16147593  0.88810917    -0.79900
O25         O  0.05328290  0.28501663  0.93220379    -0.79800
O26         O  0.94686034  0.24605652  0.94696825    -0.79900
Co27       Co  0.03092925  0.22155088  0.86806874     1.51500
Co28       Co  0.94814316  0.30974550  0.86329438     1.51700
Co29       Co  0.95779395  0.21706653  0.89446517     1.51600
Co30       Co  0.04375744  0.28515039  0.87234021     1.51500
O31         O  0.98659520  0.26560242  0.87840928    -1.41800
C32         C  0.06087173  0.24994047  0.94634164     1.09700
C33         C  0.92066562  0.27569971  0.94675247     1.09800
C34         C  0.98444812  0.14439865  0.90956936     1.09800
C35         C  0.01049153  0.36746891  0.89526281     1.09700
O36         O  0.81588517  0.02762419  0.19929813    -0.79900
O37         O  0.79966750  0.99119573  0.29941566    -0.79900
O38         O  0.86001498  0.89722909  0.23494415    -0.79900
O39         O  0.84979001  0.09808566  0.27474830    -0.79900
O40         O  0.82957060  0.90597570  0.29770340    -0.80000
O41         O  0.86887549  0.09194609  0.20929749    -0.79900
O42         O  0.82989026  0.04272179  0.33381924    -0.79900
O43         O  0.81507762  0.96156111  0.21214709    -0.79900
C44         C  0.79748934  0.99349394  0.19882903     1.09800
C45         C  0.79804319  0.02105100  0.32524441     1.09700
C46         C  0.83750409  0.88313156  0.26562171     1.09800
C47         C  0.85247513  0.11248817  0.23862219     1.09700
O48         O  0.93541040  0.03571276  0.21224470    -0.79900
O49         O  0.90715318  0.93407247  0.29795219    -0.80000
O50         O  0.89213011  0.96511673  0.16538381    -0.79900
O51         O  0.91613773  0.01695003  0.33556854    -0.79900
O52         O  0.86707295  0.97370366  0.35382324    -0.79900
O53         O  0.88342405  0.03184489  0.14869156    -0.79900
O54         O  0.93425678  0.07074382  0.27203598    -0.79800
O55         O  0.93260039  0.95257285  0.23957451    -0.79900
Co56       Co  0.87557887  0.03023715  0.20669084     1.51500
Co57       Co  0.85261880  0.96234854  0.29338818     1.51700
Co58       Co  0.87391693  0.95872531  0.22783598     1.51600
Co59       Co  0.88264935  0.05505771  0.30249667     1.51500
O60         O  0.87142316  0.01158013  0.26242846    -1.41800
C61         C  0.95213709  0.05897212  0.23850250     1.09700
C62         C  0.93766285  0.93594878  0.27395073     1.09800
C63         C  0.89487645  0.99554420  0.13898774     1.09800
C64         C  0.89974523  0.99392142  0.36251262     1.09700
C65         C  0.02557144  0.03027712  0.50687681     0.02500
C66         C  0.00069206  0.02867364  0.47115448     0.02500
C67         C  0.96694173  0.00039057  0.46948345     0.02500
C68         C  0.95892615  0.97379877  0.50357387     0.02500
C69         C  0.98525390  0.97384582  0.53803968     0.02500
C70         C  0.01791260  0.00279500  0.54015105     0.02500
O71         O  0.01551709  0.83170909  0.69354241    -0.79900
O72         O  0.97712031  0.70217349  0.69198418    -0.79900
O73         O  0.89408564  0.79058676  0.63717760    -0.79900
O74         O  0.09822838  0.73167541  0.63274517    -0.79900
O75         O  0.90953063  0.72476945  0.64957407    -0.80000
O76         O  0.07965795  0.77721984  0.68022391    -0.79900
O77         O  0.03971109  0.69085906  0.67085316    -0.79900
O78         O  0.95486286  0.79881321  0.69361333    -0.79900
C79         C  0.98100248  0.82234473  0.71044135     1.09800
C80         C  0.01213754  0.68770514  0.69869700     1.09700
C81         C  0.88340138  0.75456862  0.64861706     1.09800
C82         C  0.10586829  0.75230988  0.66539527     1.09700
O83         O  0.08188998  0.80002840  0.59358910    -0.79900
O84         O  0.95628103  0.71394801  0.57658858    -0.80000
O85         O  0.95550470  0.84929948  0.62300969    -0.79900
O86         O  0.05148132  0.66543588  0.59085744    -0.79900
O87         O  0.98706702  0.65900013  0.61491804    -0.79900
O88         O  0.02158668  0.85518464  0.60810159    -0.79900
O89         O  0.04851568  0.74885945  0.56228952    -0.79800
O90         O  0.95025146  0.78095488  0.57253197    -0.79900
Co91       Co  0.04785428  0.81369914  0.64400991     1.51500
Co92       Co  0.97043714  0.71807041  0.63499078     1.51700
Co93       Co  0.95309722  0.78818236  0.63327263     1.51600
Co94       Co  0.03982873  0.71960959  0.61511817     1.51500
O95         O  0.00933957  0.76814531  0.63370861    -1.41800
C96         C  0.07527356  0.77764517  0.56174413     1.09700
C97         C  0.94887106  0.74573111  0.55569012     1.09800
C98         C  0.98553193  0.86949652  0.60806632     1.09800
C99         C  0.01862620  0.64381631  0.59508256     1.09700
O100        O  0.20239928  0.81573843  0.00816924    -0.79900
O101        O  0.30162107  0.82275974  0.97826453    -0.79900
O102        O  0.22722550  0.86183357  0.90191248    -0.79900
O103        O  0.26426716  0.86804145  0.09682299    -0.79900
O104        O  0.29496021  0.86662371  0.90727507    -0.80000
O105        O  0.19991632  0.84473834  0.09059737    -0.79900
O106        O  0.29732178  0.83020608  0.04504971    -0.79900
O107        O  0.16843070  0.84918314  0.95882122    -0.79900
C108        C  0.17453676  0.81688669  0.98067818     1.09800
C109        C  0.30310420  0.80738210  0.01416795     1.09700
C110        C  0.26308504  0.85479879  0.88840013     1.09800
C111        C  0.23251271  0.84857608  0.11187180     1.09700
O112        O  0.21340208  0.92416633  0.06654148    -0.79900
O113        O  0.29833696  0.94224407  0.95070208    -0.80000
O114        O  0.17284634  0.93506845  0.98259132    -0.79900
O115        O  0.34239189  0.90355141  0.02927537    -0.79900
O116        O  0.35868784  0.88644320  0.96435498    -0.79900
O117        O  0.15468049  0.88682952  0.02717775    -0.79900
O118        O  0.27544596  0.94506279  0.05371634    -0.79800
O119        O  0.23503337  0.94593397  0.92422954    -0.79900
Co120      Co  0.21274454  0.86824527  0.03725804     1.51500
Co121      Co  0.29920099  0.88299378  0.96688501     1.51700
Co122      Co  0.20290783  0.89825039  0.94434805     1.51600
Co123      Co  0.28188779  0.88824487  0.03768708     1.51500
O124        O  0.24296799  0.88595624  0.98805654    -1.41800
C125        C  0.24077260  0.95176846  0.06943497     1.09700
C126        C  0.27148032  0.95952446  0.92822350     1.09800
C127        C  0.14677262  0.91981158  0.00746627     1.09800
C128        C  0.36875510  0.90133130  0.99935131     1.09700
O129        O  0.03558437  0.79880993  0.19748889    -0.79900
O130        O  0.95708683  0.68901082  0.17104781    -0.79900
O131        O  0.91316823  0.77363586  0.17771989    -0.79900
O132        O  0.08400417  0.72443259  0.14684373    -0.79900
O133        O  0.90071099  0.72697725  0.12988936    -0.80000
O134        O  0.10105827  0.79174174  0.14584772    -0.79900
O135        O  0.01539750  0.70821681  0.19229097    -0.79900
O136        O  0.97427398  0.83094638  0.19412569    -0.79900
C137        C  0.00773754  0.82190233  0.21271402     1.09800
C138        C  0.98315882  0.68875534  0.19924627     1.09700
C139        C  0.88929939  0.74753304  0.16178037     1.09800
C140        C  0.11033548  0.75411843  0.15273764     1.09700
O141        O  0.05364325  0.78505129  0.07794506    -0.79900
O142        O  0.95455866  0.74608634  0.06221266    -0.80000
O143        O  0.97337183  0.85403095  0.10828237    -0.79900
O144        O  0.02199172  0.65516630  0.11912954    -0.79900
O145        O  0.95834295  0.66230541  0.09270465    -0.79900
O146        O  0.03860337  0.85152280  0.12701037    -0.79900
O147        O  0.03330286  0.72108591  0.07262804    -0.79800
O148        O  0.91669096  0.79630371  0.09101167    -0.79900
Co149      Co  0.04353681  0.79014785  0.13791055     1.51500
Co150      Co  0.96121841  0.71840379  0.11604791     1.51700
Co151      Co  0.94613423  0.81175463  0.14304120     1.51600
Co152      Co  0.02151638  0.71614363  0.13246292     1.51500
O153        O  0.98892121  0.76979635  0.13484890    -1.41800
C154        C  0.05020372  0.75239574  0.05711742     1.09700
C155        C  0.92660645  0.77372324  0.05988811     1.09800
C156        C  0.00878594  0.86974473  0.10928546     1.09800
C157        C  0.99126892  0.64049033  0.09830308     1.09700
C158        C  0.21603705  0.71871466  0.25783227     0.02500
C159        C  0.21318349  0.74644691  0.22362274     0.02500
C160        C  0.24209835  0.77887134  0.21853529     0.02500
C161        C  0.27459543  0.78292000  0.24708445     0.02500
C162        C  0.27657643  0.75671403  0.28239112     0.02500
C163        C  0.24676439  0.72488849  0.28862602     0.02500
O164        O  0.19733175  0.67347661  0.46746968    -0.79900
O165        O  0.30303398  0.69155268  0.55208438    -0.79900
O166        O  0.22352619  0.64324304  0.59655143    -0.79900
O167        O  0.28530847  0.67492261  0.42426540    -0.79900
O168        O  0.28971173  0.63955268  0.61650749    -0.80000
O169        O  0.23510289  0.63156297  0.41272825    -0.79900
O170        O  0.33786559  0.68680666  0.49130667    -0.79900
O171        O  0.21119040  0.68959941  0.52914910    -0.79900
C172        C  0.19674133  0.70008868  0.49533961     1.09800
C173        C  0.32718039  0.70606017  0.52467277     1.09700
C174        C  0.25181221  0.64739592  0.62434101     1.09800
C175        C  0.25725264  0.66180678  0.40077522     1.09700
O176        O  0.24947647  0.56286932  0.47129894    -0.79900
O177        O  0.28479801  0.57289416  0.56658192    -0.80000
O178        O  0.15641718  0.61796180  0.53119969    -0.79900
O179        O  0.35504677  0.59879272  0.48963894    -0.79900
O180        O  0.35340769  0.61959277  0.55465338    -0.79900
O181        O  0.16700154  0.59625311  0.46592548    -0.79900
O182        O  0.29944781  0.58579610  0.43006574    -0.79800
O183        O  0.22100567  0.56958911  0.54641220    -0.79900
Co184      Co  0.22303491  0.61749933  0.47337514     1.51500
Co185      Co  0.29209373  0.63273269  0.55824908     1.51700
Co186      Co  0.21772629  0.62955147  0.53374740     1.51600
Co187      Co  0.31755831  0.63686543  0.46081700     1.51500
O188        O  0.27318864  0.63330160  0.50284895    -1.41800
C189        C  0.27391863  0.55760846  0.44095997     1.09700
C190        C  0.25129430  0.55360563  0.56441021     1.09800
C191        C  0.14324249  0.59999590  0.49787358     1.09800
C192        C  0.37101003  0.60023726  0.52483459     1.09700
C193        C  0.27275779  0.71328080  0.75514975     0.02500
C194        C  0.23924674  0.71669408  0.72838662     0.02500
C195        C  0.21074338  0.74948407  0.73371059     0.02500
C196        C  0.21724429  0.78004124  0.76482814     0.02500
C197        C  0.25237341  0.77700278  0.79034084     0.02500
C198        C  0.27911264  0.74288090  0.78613354     0.02500
O199        O  0.42525192  0.77018474  0.95481859    -0.79900
O200        O  0.55250864  0.74315502  0.95487228    -0.79900
O201        O  0.47702667  0.66163473  0.88467463    -0.79900
O202        O  0.52339527  0.84837125  0.88453473    -0.79900
O203        O  0.53785835  0.67479180  0.91321289    -0.80000
O204        O  0.47778809  0.83321236  0.93365804    -0.79900
O205        O  0.56649745  0.80028560  0.92661099    -0.79900
O206        O  0.42431500  0.70719908  0.92913100    -0.79900
C207        C  0.41521040  0.73254156  0.95755562     1.09800
C208        C  0.56784961  0.77795433  0.95812233     1.09700
C209        C  0.50816860  0.65067219  0.90545836     1.09800
C210        C  0.50183561  0.85851310  0.91607122     1.09700
O211        O  0.45417597  0.82506066  0.84931662    -0.79900
O212        O  0.54305949  0.71518742  0.83787125    -0.80000
O213        O  0.40494086  0.69645482  0.84987336    -0.79900
O214        O  0.59288130  0.79072403  0.84820277    -0.79900
O215        O  0.60602455  0.73149372  0.88273062    -0.79900
O216        O  0.39834866  0.76270096  0.86980360    -0.79900
O217        O  0.50770353  0.79334112  0.82029864    -0.79800
O218        O  0.47814760  0.72077660  0.81955766    -0.79900
Co219      Co  0.44237905  0.79579200  0.90238052     1.51500
Co220      Co  0.54598668  0.73293225  0.89579947     1.51700
Co221      Co  0.45251019  0.71726321  0.87483332     1.51600
Co222      Co  0.53620851  0.78895573  0.87373393     1.51500
O223        O  0.48979844  0.75493992  0.90020120    -1.41800
C224        C  0.47810698  0.81905671  0.81848212     1.09700
C225        C  0.51500017  0.71012718  0.81205249     1.09800
C226        C  0.38432173  0.72997636  0.85173949     1.09800
C227        C  0.61764933  0.76041303  0.85726552     1.09700
C228        C  0.75968210  0.21039090  0.77367679     0.02500
C229        C  0.78945859  0.24236625  0.77130722     0.02500
C230        C  0.78611306  0.27419377  0.74099091     0.02500
C231        C  0.75211667  0.27441402  0.71410571     0.02500
C232        C  0.72243930  0.24255393  0.71657446     0.02500
C233        C  0.72721162  0.20968825  0.74489043     0.02500
O234        O  0.94211834  0.42075749  0.76800162    -0.79900
O235        O  0.94405436  0.54709558  0.72730613    -0.79900
O236        O  0.88546605  0.45912440  0.64231532    -0.79900
O237        O  0.87697148  0.52106605  0.84648745    -0.79900
O238        O  0.90579897  0.52256897  0.65860055    -0.80000
O239        O  0.92603823  0.47692628  0.83048598    -0.79900
O240        O  0.92013345  0.55929059  0.78895028    -0.79900
O241        O  0.93929121  0.44834927  0.70421541    -0.79900
C242        C  0.95729533  0.42749459  0.73184416     1.09800
C243        C  0.94905056  0.56213777  0.76246947     1.09700
C244        C  0.90236733  0.49330374  0.63224573     1.09800
C245        C  0.90954684  0.50149650  0.85598516     1.09700
O246        O  0.83880808  0.45359206  0.82976954    -0.79900
O247        O  0.83094164  0.53886975  0.69906585    -0.80000
O248        O  0.86644790  0.40078760  0.70633685    -0.79900
O249        O  0.84094858  0.58618719  0.79679279    -0.79900
O250        O  0.86822197  0.59090224  0.73316359    -0.79900
O251        O  0.85806701  0.39498968  0.77399590    -0.79900
O252        O  0.81086768  0.50428741  0.79213228    -0.79800
O253        O  0.82031137  0.47240946  0.69857778    -0.79900
Co254      Co  0.89159523  0.43883316  0.79885321     1.51500
Co255      Co  0.88766993  0.53145489  0.71822098     1.51700
Co256      Co  0.88009349  0.46148684  0.70201245     1.51600
Co257      Co  0.86398175  0.53197121  0.78653054     1.51500
O258        O  0.88182618  0.48240683  0.75794193    -1.41800
C259        C  0.80768170  0.47575625  0.81918669     1.09700
C260        C  0.80714418  0.50884723  0.69352067     1.09800
C261        C  0.85454943  0.38066706  0.73808875     1.09800
C262        C  0.84756322  0.60695558  0.76371933     1.09700
O263        O  0.04521971  0.19658856  0.30930924    -0.79900
O264        O  0.96119634  0.30722487  0.33344015    -0.79900
O265        O  0.92470248  0.22435296  0.32514545    -0.79900
O266        O  0.08659407  0.27438021  0.35113685    -0.79900
O267        O  0.90609447  0.26953790  0.37278554    -0.80000
O268        O  0.10854353  0.20877942  0.35915240    -0.79900
O269        O  0.01713615  0.28421770  0.30887712    -0.79900
O270        O  0.98408606  0.16504895  0.31157969    -0.79900
C271        C  0.01874549  0.17265451  0.29419122     1.09800
C272        C  0.98448882  0.30289332  0.30271704     1.09700
C273        C  0.89826071  0.24872524  0.34017634     1.09800
C274        C  0.11459539  0.24575308  0.34658414     1.09700
O275        O  0.05976726  0.21797732  0.42808240    -0.79900
O276        O  0.95700148  0.25231644  0.44274230    -0.80000
O277        O  0.97852242  0.14381750  0.39630792    -0.79900
O278        O  0.02430885  0.34434755  0.37821536    -0.79900
O279        O  0.96246436  0.33699079  0.41015806    -0.79900
O280        O  0.04575732  0.14754436  0.38265362    -0.79900
O281        O  0.03781546  0.28196889  0.42818575    -0.79800
O282        O  0.92139910  0.20209482  0.41224087    -0.79900
Co283      Co  0.05077768  0.20860251  0.36861904     1.51500
Co284      Co  0.96566586  0.27937893  0.38884695     1.51700
Co285      Co  0.95373725  0.18591662  0.36115291     1.51600
Co286      Co  0.02460181  0.28228354  0.36879100     1.51500
O287        O  0.99552402  0.22751139  0.37164512    -1.41800
C288        C  0.05646203  0.25274760  0.44550434     1.09700
C289        C  0.92877745  0.22493084  0.44367397     1.09800
C290        C  0.01420336  0.12860310  0.39724763     1.09800
C291        C  0.99436654  0.35951176  0.40102948     1.09700
C292        C  0.27174625  0.21036305  0.24183186     0.02500
C293        C  0.23857643  0.21663511  0.27028439     0.02500
C294        C  0.21156329  0.25056849  0.26453846     0.02500
C295        C  0.21717218  0.27715198  0.22951889     0.02500
C296        C  0.25150277  0.27159658  0.20215654     0.02500
C297        C  0.27886186  0.23822365  0.20871554     0.02500
O298        O  0.20142878  0.33224436  0.03074283    -0.79900
O299        O  0.33681300  0.34223507  0.94150980    -0.79900
O300        O  0.21155421  0.36990868  0.89432859    -0.79900
O301        O  0.30442627  0.33649681  0.07475863    -0.79900
O302        O  0.27820171  0.35858061  0.88690789    -0.80000
O303        O  0.24066139  0.36218694  0.08151698    -0.79900
O304        O  0.30013502  0.31091963  0.99114372    -0.79900
O305        O  0.20335860  0.32259283  0.96418294    -0.79900
C306        C  0.19455524  0.30964919  0.00010577     1.09800
C307        C  0.32726804  0.30991201  0.96225432     1.09700
C308        C  0.24188062  0.35495685  0.87433130     1.09800
C309        C  0.27117062  0.34094512  0.09601921     1.09700
O310        O  0.23422422  0.44182148  0.04518621    -0.79900
O311        O  0.27413953  0.44377090  0.91177419    -0.80000
O312        O  0.14984348  0.38849861  0.95236881    -0.79900
O313        O  0.35318037  0.37887917  0.01061565    -0.79900
O314        O  0.33784449  0.42812939  0.96612908    -0.79900
O315        O  0.16612760  0.40753012  0.01611251    -0.79900
O316        O  0.29566200  0.41717792  0.05406156    -0.79800
O317        O  0.21211308  0.44256513  0.94311320    -0.79900
Co318      Co  0.22517678  0.38721738  0.02423828     1.51500
Co319      Co  0.30481230  0.39355267  0.92894038     1.51700
Co320      Co  0.20874590  0.38283118  0.95490345     1.51600
Co321      Co  0.29388372  0.36279944  0.02224611     1.51500
O322        O  0.26491917  0.38334683  0.97446024    -1.41800
C323        C  0.26905864  0.44525410  0.06066427     1.09700
C324        C  0.23911518  0.45988594  0.92048270     1.09800
C325        C  0.13990535  0.40490757  0.98683332     1.09800
C326        C  0.36263795  0.41202281  0.99133646     1.09700
C327        C  0.25329136  0.21726580  0.71069854     0.02500
C328        C  0.21992969  0.21398529  0.73960916     0.02500
C329        C  0.21527732  0.24339106  0.77193007     0.02500
C330        C  0.24204875  0.27754814  0.77407151     0.02500
C331        C  0.27505312  0.28104817  0.74527761     0.02500
C332        C  0.28187047  0.25023261  0.71460595     0.02500
O333        O  0.53762225  0.24977998  0.56662953    -0.79900
O334        O  0.46606396  0.21548411  0.56739602    -0.79900
O335        O  0.50797090  0.14058363  0.61097263    -0.79900
O336        O  0.46967501  0.34645883  0.63059489    -0.79900
O337        O  0.43979528  0.14468508  0.60191939    -0.80000
O338        O  0.52813592  0.32900602  0.59839988    -0.79900
O339        O  0.45357188  0.28040993  0.58416396    -0.79900
O340        O  0.57341849  0.19703694  0.58669772    -0.79900
C341        C  0.56618534  0.22484606  0.55954348     1.09800
C342        C  0.45256144  0.25098397  0.55843897     1.09700
C343        C  0.47378520  0.12535715  0.59787605     1.09800
C344        C  0.50004380  0.35576428  0.60665123     1.09700
O345        O  0.55663964  0.30347873  0.67265104    -0.79900
O346        O  0.45333401  0.17103636  0.68026089    -0.80000
O347        O  0.58532476  0.21348946  0.67535986    -0.79900
O348        O  0.42039445  0.27812704  0.66497994    -0.79900
O349        O  0.40591693  0.21929028  0.63293468    -0.79900
O350        O  0.60098875  0.25999967  0.62941563    -0.79900
O351        O  0.49461999  0.29749935  0.69732626    -0.79800
O352        O  0.51925227  0.16571080  0.69550645    -0.79900
Co353      Co  0.54139295  0.27243825  0.62199070     1.51500
Co354      Co  0.46190108  0.19371571  0.62387229     1.51700
Co355      Co  0.54315119  0.18348230  0.64214100     1.51600
Co356      Co  0.47649472  0.28743009  0.64081068     1.51500
O357        O  0.50036386  0.23238599  0.64558138    -1.41800
C358        C  0.53144686  0.30813873  0.70223551     1.09700
C359        C  0.48146102  0.16223375  0.70539030     1.09800
C360        C  0.61141644  0.23777727  0.65930583     1.09800
C361        C  0.39514372  0.24986761  0.65541423     1.09700
O362        O  0.33814205  0.04052433  0.19141317    -0.79900
O363        O  0.31437255  0.95893018  0.29017443    -0.79900
O364        O  0.35224441  0.90821393  0.21205910    -0.79900
O365        O  0.32944506  0.08106743  0.27736118    -0.79900
O366        O  0.36321757  0.89344789  0.27909971    -0.80000
O367        O  0.37543208  0.09964060  0.23000497    -0.79900
O368        O  0.31671824  0.01501248  0.32973753    -0.79900
O369        O  0.31195724  0.98447634  0.21649734    -0.79900
C370        C  0.30784208  0.01647043  0.19519857     1.09800
C371        C  0.29847685  0.98294096  0.31658712     1.09700
C372        C  0.35037096  0.88285331  0.24313010     1.09800
C373        C  0.34302359  0.10700636  0.25141620     1.09700
O374        O  0.44719183  0.05296976  0.24482404    -0.79900
O375        O  0.43404208  0.94258468  0.28165975    -0.80000
O376        O  0.38756926  0.98677790  0.16092764    -0.79900
O377        O  0.40189088  0.01806863  0.35110498    -0.79900
O378        O  0.38084580  0.95340244  0.34523027    -0.79900
O379        O  0.41461817  0.05122852  0.16361368    -0.79900
O380        O  0.41514917  0.08260894  0.29911627    -0.79800
O381        O  0.42740047  0.94825717  0.21631591    -0.79900
Co382      Co  0.39425935  0.04156213  0.21788327     1.51500
Co383      Co  0.37421599  0.95261840  0.28332631     1.51700
Co384      Co  0.36952012  0.96726751  0.22111839     1.51600
Co385      Co  0.36591256  0.04742541  0.31220879     1.51500
O386        O  0.38006031  0.01073667  0.26587604    -1.41800
C387        C  0.44627485  0.07914123  0.27451729     1.09700
C388        C  0.44843347  0.93662043  0.24612612     1.09800
C389        C  0.40764148  0.01768488  0.14396273     1.09800
C390        C  0.39871345  0.98189221  0.36524106     1.09700
C391        C  0.48586322  0.01829670  0.53316265     0.02500
C392        C  0.45752350  0.01245759  0.50088718     0.02500
C393        C  0.46399210  0.98049451  0.47168576     0.02500
C394        C  0.49861612  0.95422888  0.47523186     0.02500
C395        C  0.52556417  0.95851593  0.50924528     0.02500
C396        C  0.51991313  0.99132928  0.53805248     0.02500
O397        O  0.45861286  0.78198851  0.43212427    -0.79900
O398        O  0.55589350  0.69787757  0.41215246    -0.79900
O399        O  0.47024959  0.65866017  0.42245152    -0.79900
O400        O  0.53534686  0.82969167  0.39811428    -0.79900
O401        O  0.51697744  0.63839457  0.37641309    -0.80000
O402        O  0.46986265  0.84528842  0.38176362    -0.79900
O403        O  0.53077962  0.75362569  0.43928751    -0.79900
O404        O  0.41862865  0.72625782  0.43347453    -0.79900
C405        C  0.43229046  0.75939996  0.44960920     1.09800
C406        C  0.55357916  0.72246729  0.44227486     1.09700
C407        C  0.49600549  0.63217326  0.40946579     1.09800
C408        C  0.50480524  0.85552660  0.39733911     1.09700
O409        O  0.46614444  0.79235645  0.31195924    -0.79900
O410        O  0.50214066  0.68463879  0.30356756    -0.80000
O411        O  0.39621422  0.71948231  0.34812738    -0.79900
O412        O  0.58467566  0.75156998  0.36284236    -0.79900
O413        O  0.58324626  0.68677903  0.33596767    -0.79900
O414        O  0.40261473  0.78510557  0.36596353    -0.79900
O415        O  0.53060294  0.79052163  0.32317565    -0.79800
O416        O  0.44851972  0.65456302  0.33600816    -0.79900
Co417      Co  0.46449452  0.78550579  0.37224969     1.51500
Co418      Co  0.52913291  0.69610189  0.35626792     1.51700
Co419      Co  0.43541806  0.69135230  0.38499111     1.51600
Co420      Co  0.52508525  0.77117772  0.38137625     1.51500
O421        O  0.48164569  0.72715032  0.36975028    -1.41800
C422        C  0.50188091  0.79994816  0.29967990     1.09700
C423        C  0.47276890  0.65842249  0.30445858     1.09800
C424        C  0.38232095  0.75590792  0.34951371     1.09800
C425        C  0.60216500  0.72066839  0.34317229     1.09700
O426        O  0.57666367  0.94275570  0.71400233    -0.79900
O427        O  0.59006439  0.07765963  0.79455626    -0.79900
O428        O  0.61924073  0.95594888  0.84903541    -0.79900
O429        O  0.58603337  0.04333893  0.66348842    -0.79900
O430        O  0.60822578  0.02309544  0.85224776    -0.80000
O431        O  0.60945813  0.97868025  0.65862190    -0.79900
O432        O  0.56010973  0.03833080  0.74723540    -0.79900
O433        O  0.57188970  0.94582408  0.78113071    -0.79900
C434        C  0.55585020  0.93799143  0.74666883     1.09800
C435        C  0.55775173  0.06423676  0.77680634     1.09700
C436        C  0.60550832  0.98762126  0.86766910     1.09800
C437        C  0.58940082  0.00957937  0.64321172     1.09700
O438        O  0.68777961  0.97170702  0.69425959    -0.79900
O439        O  0.69228698  0.01826113  0.82709864    -0.80000
O440        O  0.63694174  0.89149208  0.79279968    -0.79900
O441        O  0.62678851  0.09360023  0.72585731    -0.79900
O442        O  0.67668088  0.07826217  0.76843614    -0.79900
O443        O  0.65117981  0.90488466  0.72649576    -0.79900
O444        O  0.66680033  0.03474804  0.68480048    -0.79800
O445        O  0.69167841  0.95417091  0.80066471    -0.79900
Co446      Co  0.63301065  0.96429233  0.71651644     1.51500
Co447      Co  0.64226214  0.04751314  0.80801770     1.51700
Co448      Co  0.63214724  0.95054899  0.78843823     1.51600
Co449      Co  0.61218978  0.03337277  0.71616676     1.51500
O450        O  0.63278352  0.00560469  0.76501104    -1.41800
C451        C  0.69374958  0.00684703  0.67919822     1.09700
C452        C  0.70769810  0.98217962  0.82274965     1.09800
C453        C  0.64993972  0.87984783  0.75731309     1.09800
C454        C  0.65980618  0.10352914  0.74435701     1.09700
C455        C  0.47463970  0.00605981  0.03654906     0.02500
C456        C  0.47228310  0.97176309  0.00926129     0.02500
C457        C  0.50276446  0.96633379  0.97825072     0.02500
C458        C  0.53371729  0.99563707  0.97182723     0.02500
C459        C  0.53452437  0.03123111  0.99677333     0.02500
C460        C  0.50649729  0.03580947  0.03066712     0.02500
O461        O  0.46105828  0.21766966  0.05654382    -0.79900
O462        O  0.56422300  0.30061751  0.07983481    -0.79900
O463        O  0.47896600  0.34132496  0.07788320    -0.79900
O464        O  0.53395083  0.16900316  0.10348544    -0.79900
O465        O  0.52591071  0.35643405  0.12389148    -0.80000
O466        O  0.46696042  0.15235053  0.10789187    -0.79900
O467        O  0.54797585  0.24027718  0.05949494    -0.79900
O468        O  0.42545830  0.27720442  0.06178508    -0.79900
C469        C  0.43695423  0.24470761  0.04201369     1.09800
C470        C  0.56391004  0.27433029  0.05139106     1.09700
C471        C  0.50356402  0.36702936  0.09324282     1.09800
C472        C  0.50393834  0.14259364  0.09903028     1.09700
O473        O  0.47302222  0.20081146  0.17601888    -0.79900
O474        O  0.51158631  0.30030521  0.19127790    -0.80000
O475        O  0.40312127  0.27653742  0.14855204    -0.79900
O476        O  0.60235921  0.23521073  0.13133583    -0.79900
O477        O  0.59448196  0.29942386  0.15763814    -0.79900
O478        O  0.40750526  0.21270416  0.12532880    -0.79900
O479        O  0.53740826  0.21954194  0.17892184    -0.79800
O480        O  0.45845598  0.33575936  0.16577470    -0.79900
Co481      Co  0.46877266  0.20997008  0.11599610     1.51500
Co482      Co  0.53774613  0.29560939  0.13620652     1.51700
Co483      Co  0.44349558  0.30608771  0.11322838     1.51600
Co484      Co  0.54112704  0.23211590  0.11918936     1.51500
O485        O  0.48757336  0.26537269  0.11943160    -1.41800
C486        C  0.50605725  0.20391395  0.19578842     1.09700
C487        C  0.48203480  0.32604972  0.19582358     1.09800
C488        C  0.38818299  0.24095011  0.14467080     1.09800
C489        C  0.61675180  0.26659530  0.15180078     1.09700
O490        O  0.19256971  0.18310547  0.46473387    -0.79900
O491        O  0.30205806  0.19274421  0.50498457    -0.79900
O492        O  0.23413644  0.13178329  0.58544795    -0.79900
O493        O  0.26984158  0.15542757  0.39590494    -0.79900
O494        O  0.29960686  0.15558761  0.58408710    -0.80000
O495        O  0.20548845  0.13315779  0.39891389    -0.79900
O496        O  0.33324407  0.16457870  0.44950452    -0.79900
O497        O  0.19897431  0.17578167  0.53006903    -0.79900
C498        C  0.18752299  0.19735528  0.50039729     1.09800
C499        C  0.32881565  0.19410591  0.47565578     1.09700
C500        C  0.26532145  0.14993496  0.60325421     1.09800
C501        C  0.23475088  0.15198130  0.37996244     1.09700
O502        O  0.20909479  0.06356502  0.45226947    -0.79900
O503        O  0.28740039  0.08066259  0.55257023    -0.80000
O504        O  0.15601101  0.10152498  0.53323838    -0.79900
O505        O  0.33044141  0.07678352  0.46605187    -0.79900
O506        O  0.34835193  0.11894629  0.51620817    -0.79900
O507        O  0.14300462  0.11207750  0.46575060    -0.79900
O508        O  0.26557166  0.06846275  0.41280946    -0.79800
O509        O  0.23030256  0.05878155  0.52712818    -0.79900
Co510      Co  0.20256948  0.12314075  0.46108833     1.51500
Co511      Co  0.29020353  0.13821598  0.52896690     1.51700
Co512      Co  0.21557487  0.11725757  0.52435158     1.51600
Co513      Co  0.29794606  0.11640250  0.43323795     1.51500
O514        O  0.26019336  0.12765941  0.47996265    -1.41800
C515        C  0.23349932  0.04924537  0.42522300     1.09700
C516        C  0.26215468  0.05171620  0.54735378     1.09800
C517        C  0.13125806  0.09990396  0.50210215     1.09800
C518        C  0.35568506  0.08762422  0.49331217     1.09700
C519        C  0.77220679  0.77293606  0.25641800     0.02500
C520        C  0.77992721  0.74156738  0.22622622     0.02500
C521        C  0.75222510  0.70789745  0.22197275     0.02500
C522        C  0.71816271  0.70368348  0.24952028     0.02500
C523        C  0.71093661  0.73411065  0.28020741     0.02500
C524        C  0.73713902  0.76901992  0.28311791     0.02500
O525        O  0.56534970  0.51760703  0.27056589    -0.79900
O526        O  0.56614228  0.43916854  0.23235048    -0.79900
O527        O  0.62808743  0.53679120  0.14151922    -0.79900
O528        O  0.62593588  0.47027066  0.36213521    -0.79900
O529        O  0.59413888  0.47857924  0.15904808    -0.80000
O530        O  0.60241836  0.53378461  0.34654283    -0.79900
O531        O  0.58027226  0.44451112  0.29915796    -0.79900
O532        O  0.58229406  0.54299444  0.20989747    -0.79900
C533        C  0.55564931  0.53674166  0.23821013     1.09800
C534        C  0.55649639  0.43477672  0.27008295     1.09700
C535        C  0.60163449  0.50885953  0.13387620     1.09800
C536        C  0.60695143  0.50391524  0.37287786     1.09700
O537        O  0.67792348  0.54077827  0.30585948    -0.79900
O538        O  0.67048150  0.43644044  0.16914153    -0.80000
O539        O  0.66572080  0.57115829  0.21394515    -0.79900
O540        O  0.65770571  0.40802878  0.30046845    -0.79900
O541        O  0.64178345  0.39378797  0.23535192    -0.79900
O542        O  0.62504917  0.58300029  0.26820345    -0.79900
O543        O  0.69667384  0.47804853  0.30902572    -0.79800
O544        O  0.69305994  0.49955936  0.17822254    -0.79900
Co545      Co  0.62213366  0.52374701  0.28835695     1.51500
Co546      Co  0.61954557  0.44083909  0.20367402     1.51700
Co547      Co  0.63851497  0.51942555  0.19601633     1.51600
Co548      Co  0.63781948  0.46584794  0.30187195     1.51500
O549        O  0.64384223  0.48511564  0.24308153    -1.41800
C550        C  0.70587568  0.51527768  0.31181086     1.09700
C551        C  0.69695219  0.46416693  0.16217114     1.09800
C552        C  0.65226388  0.59524577  0.24199439     1.09800
C553        C  0.65708792  0.38392426  0.26964900     1.09700
C554        C  0.79475942  0.24976756  0.27013840     0.02500
C555        C  0.78946139  0.22164086  0.23729230     0.02500
C556        C  0.75557308  0.22655541  0.21054827     0.02500
C557        C  0.72487300  0.25716665  0.21851860     0.02500
C558        C  0.72950594  0.28349062  0.25338221     0.02500
C559        C  0.76519754  0.28069805  0.27784601     0.02500
C560        C  0.77951582  0.74143752  0.71676646     0.02500
C561        C  0.74907072  0.77280782  0.71425701     0.02500
C562        C  0.71865313  0.77601885  0.74605856     0.02500
C563        C  0.71903215  0.74874769  0.78033954     0.02500
C564        C  0.75011158  0.71804351  0.78267274     0.02500
C565        C  0.77984366  0.71353670  0.75064371     0.02500
O566        O  0.17734508  0.03563582  0.79818660    -0.79900
O567        O  0.16198575  0.95476723  0.66672006    -0.79900
O568        O  0.13238834  0.90630049  0.79671595    -0.79900
O569        O  0.15742254  0.08879899  0.69835108    -0.79900
O570        O  0.15096514  0.90166185  0.73067907    -0.80000
O571        O  0.13401448  0.09149795  0.76465239    -0.79900
O572        O  0.19197793  0.00887033  0.69702400    -0.79900
O573        O  0.18402136  0.97043179  0.80498883    -0.79900
C574        C  0.19949943  0.00564003  0.80748667     1.09800
C575        C  0.19281823  0.97890389  0.67128767     1.09700
C576        C  0.14965053  0.88689888  0.76680950     1.09800
C577        C  0.15224205  0.10829953  0.73239129     1.09700
O578        O  0.05951472  0.03668708  0.77256955    -0.79900
O579        O  0.06517429  0.92227854  0.73719822    -0.80000
O580        O  0.11480066  0.97294552  0.85882743    -0.79900
O581        O  0.11932509  0.02314768  0.65170885    -0.79900
O582        O  0.07501674  0.97525892  0.67099360    -0.79900
O583        O  0.10474942  0.04045944  0.84530855    -0.79900
O584        O  0.08172137  0.06106836  0.71399837    -0.79800
O585        O  0.06341800  0.95977726  0.79508452    -0.79900
Co586      Co  0.11817083  0.03130854  0.78485546     1.51500
Co587      Co  0.11329421  0.94066423  0.70318422     1.51700
Co588      Co  0.12344305  0.96806968  0.79858260     1.51600
Co589      Co  0.13838581  0.03494419  0.70962137     1.51500
O590        O  0.12607284  0.98665045  0.74032209    -1.41800
C591        C  0.05335219  0.05834207  0.74102645     1.09700
C592        C  0.04753550  0.93399657  0.77067342     1.09800
C593        C  0.10351776  0.00939057  0.87067834     1.09800
C594        C  0.08748902  0.00151374  0.64481779     1.09700
O595        O  0.71362259  0.42762595  0.56493490    -0.79900
O596        O  0.80576206  0.43234247  0.42544941    -0.79900
O597        O  0.84250505  0.40928641  0.53682084    -0.79900
O598        O  0.67705352  0.42943565  0.47499430    -0.79900
O599        O  0.85436201  0.38674791  0.47241467    -0.80000
O600        O  0.66678626  0.38407249  0.52394813    -0.79900
O601        O  0.73987223  0.44899563  0.42203253    -0.79900
O602        O  0.77464562  0.44922520  0.55819540    -0.79900
C603        C  0.73904394  0.45532939  0.57147582     1.09800
C604        C  0.77768641  0.45760043  0.41637822     1.09700
C605        C  0.86607166  0.40452034  0.50536164     1.09800
C606        C  0.65369228  0.41331448  0.50180000     1.09700
O607        O  0.72803243  0.32055946  0.50945083    -0.79900
O608        O  0.79675327  0.31986170  0.47021299    -0.80000
O609        O  0.78365701  0.37401183  0.60429891    -0.79900
O610        O  0.75076244  0.36391233  0.39830497    -0.79900
O611        O  0.81898733  0.35406313  0.39856865    -0.79900
O612        O  0.72021324  0.34950095  0.59137426    -0.79900
O613        O  0.68960822  0.34138680  0.45837082    -0.79800
O614        O  0.80433680  0.33308685  0.53643940    -0.79900
Co615      Co  0.72679434  0.37475121  0.53622609     1.51500
Co616      Co  0.79835297  0.37670336  0.44901316     1.51700
Co617      Co  0.78453339  0.39069133  0.54473500     1.51600
Co618      Co  0.71698734  0.39613081  0.44224567     1.51500
O619        O  0.75969528  0.39981278  0.48894411    -1.41800
C620        C  0.69942342  0.31365089  0.48463669     1.09700
C621        C  0.80832452  0.30926868  0.50580798     1.09800
C622        C  0.75116678  0.35331138  0.61565776     1.09800
C623        C  0.78416310  0.34985335  0.38134608     1.09700
C624        C  0.03671713  0.53156860  0.49401362     0.02500
C625        C  0.00722197  0.53514344  0.52675672     0.02500
C626        C  0.97511126  0.50511837  0.52964543     0.02500
C627        C  0.97259672  0.47224521  0.50051677     0.02500
C628        C  0.00177181  0.46894629  0.46766949     0.02500
C629        C  0.03302022  0.49958821  0.46368091     0.02500
O630        O  0.79162931  0.68844544  0.01965504    -0.79900
O631        O  0.67564466  0.69372340  0.97925451    -0.79900
O632        O  0.77592072  0.62530855  0.90268035    -0.79900
O633        O  0.71026921  0.63698308  0.10512676    -0.79900
O634        O  0.73231195  0.67488738  0.91793427    -0.80000
O635        O  0.77736383  0.63972946  0.08729022    -0.79900
O636        O  0.70430591  0.69220278  0.04240168    -0.79900
O637        O  0.81120874  0.66965949  0.95957793    -0.79900
C638        C  0.80946397  0.69734488  0.98658467     1.09800
C639        C  0.68398959  0.71018795  0.01424102     1.09700
C640        C  0.75577359  0.65724726  0.89215277     1.09800
C641        C  0.74759641  0.64336384  0.11456365     1.09700
O642        O  0.78219685  0.56841247  0.03238371    -0.79900
O643        O  0.70622697  0.58833324  0.92009473    -0.80000
O644        O  0.84080593  0.59202422  0.95851130    -0.79900
O645        O  0.65180691  0.62373009  0.04268508    -0.79900
O646        O  0.64770638  0.61018889  0.97574702    -0.79900
O647        O  0.84705877  0.61755393  0.02300269    -0.79900
O648        O  0.71766582  0.57142465  0.05273530    -0.79800
O649        O  0.75756993  0.56005956  0.95632879    -0.79900
Co650      Co  0.78589495  0.62860182  0.02356215     1.51500
Co651      Co  0.69225899  0.64196130  0.94965448     1.51700
Co652      Co  0.78426157  0.61372780  0.96325284     1.51600
Co653      Co  0.71270989  0.63211400  0.04704174     1.51500
O654        O  0.73246944  0.63089725  0.99206254    -1.41800
C655        C  0.75052452  0.55104262  0.04684990     1.09700
C656        C  0.72865778  0.55713122  0.93016190     1.09800
C657        C  0.86260117  0.59837658  0.99103528     1.09800
C658        C  0.63242836  0.61026840  0.01169159     1.09700
C659        C  0.46897306  0.51585356  0.97014043     0.02500
C660        C  0.50063937  0.54554831  0.97419373     0.02500
C661        C  0.52805243  0.54302882  0.00751851     0.02500
C662        C  0.52614757  0.50940306  0.03495237     0.02500
C663        C  0.49706657  0.47765600  0.02981896     0.02500
C664        C  0.46680900  0.48198903  0.99861489     0.02500
O665        O  0.80655841  0.16879288  0.03592291    -0.79900
O666        O  0.70043410  0.19021649  0.95302013    -0.79900
O667        O  0.77851943  0.14096855  0.90803139    -0.79900
O668        O  0.72703235  0.17704072  0.07736722    -0.79900
O669        O  0.71195967  0.13608568  0.89043758    -0.80000
O670        O  0.77082427  0.12831521  0.09427660    -0.79900
O671        O  0.67081867  0.19167275  0.01610503    -0.79900
O672        O  0.78605658  0.18962820  0.97731017    -0.79900
C673        C  0.80286663  0.19785675  0.01057108     1.09800
C674        C  0.67843908  0.20761833  0.98077318     1.09700
C675        C  0.74929094  0.14388514  0.88079449     1.09800
C676        C  0.75096126  0.16107716  0.10328149     1.09700
O677        O  0.75355063  0.05879762  0.04553271    -0.79900
O678        O  0.72092239  0.06992292  0.94122017    -0.80000
O679        O  0.84558040  0.11937545  0.97761970    -0.79900
O680        O  0.64611166  0.10825663  0.02153880    -0.79900
O681        O  0.65254174  0.11768155  0.95355269    -0.79900
O682        O  0.83617499  0.09171856  0.04124687    -0.79900
O683        O  0.70215633  0.09100853  0.07950106    -0.79800
O684        O  0.78416180  0.06960053  0.96293261    -0.79900
Co685      Co  0.78029607  0.11240409  0.03460469     1.51500
Co686      Co  0.71258176  0.13029169  0.94871753     1.51700
Co687      Co  0.78385555  0.12973784  0.97208721     1.51600
Co688      Co  0.68854148  0.14200999  0.04682595     1.51500
O689        O  0.72998406  0.12841966  0.00468913    -1.41800
C690        C  0.72507206  0.05918737  0.07333192     1.09700
C691        C  0.75482580  0.05138442  0.94601857     1.09800
C692        C  0.85936107  0.09887240  0.00939243     1.09800
C693        C  0.63292207  0.10487397  0.98528843     1.09700
O694        O  0.34035857  0.51592577  0.67944834    -0.79900
O695        O  0.32982785  0.48596321  0.82240812    -0.79900
O696        O  0.36712966  0.39282260  0.71515747    -0.79900
O697        O  0.36798538  0.60776941  0.78906323    -0.79900
O698        O  0.34450631  0.41123728  0.77766086    -0.80000
O699        O  0.35236888  0.58839766  0.72511497    -0.79900
O700        O  0.32282689  0.53895040  0.78060670    -0.79900
O701        O  0.32252253  0.46371190  0.71915241    -0.79900
C702        C  0.31478906  0.48838725  0.69011215     1.09800
C703        C  0.30867962  0.51560131  0.80803667     1.09700
C704        C  0.34607416  0.38515895  0.74725340     1.09800
C705        C  0.35032272  0.61466784  0.75514878     1.09700
O706        O  0.43935240  0.57340958  0.71532100    -0.79900
O707        O  0.43118404  0.42289993  0.79610119    -0.80000
O708        O  0.39061270  0.45373258  0.66491517    -0.79900
O709        O  0.38479131  0.54569309  0.84349768    -0.79900
O710        O  0.41825070  0.48792152  0.84039987    -0.79900
O711        O  0.42982703  0.50626039  0.67357799    -0.79900
O712        O  0.44101250  0.56643758  0.78216031    -0.79800
O713        O  0.43982008  0.43212006  0.72992828    -0.79900
Co714      Co  0.39040709  0.54123536  0.70343663     1.51500
Co715      Co  0.38145201  0.45685697  0.80408737     1.51700
Co716      Co  0.38132905  0.44811495  0.72614012     1.51600
Co717      Co  0.38200586  0.55163687  0.78095279     1.51500
O718        O  0.39489752  0.49928021  0.75450880    -1.41800
C719        C  0.45662841  0.58000926  0.74892313     1.09700
C720        C  0.45308421  0.41935428  0.76408311     1.09800
C721        C  0.41654631  0.47871164  0.65062433     1.09800
C722        C  0.40754979  0.51908307  0.86054269     1.09700
O723        O  0.76243825  0.92870957  0.42117516    -0.79900
O724        O  0.72674893  0.93010920  0.53194534    -0.79900
O725        O  0.64069680  0.87698813  0.47017704    -0.79900
O726        O  0.84627693  0.87105777  0.52078829    -0.79900
O727        O  0.65371104  0.88637105  0.53778112    -0.80000
O728        O  0.82815602  0.91671108  0.47355919    -0.79900
O729        O  0.78362793  0.90708316  0.55753276    -0.79900
O730        O  0.70429604  0.92830332  0.45845932    -0.79900
C731        C  0.72924747  0.94574601  0.43390448     1.09800
C732        C  0.75819422  0.93625103  0.55304108     1.09700
C733        C  0.62895701  0.88809157  0.50684725     1.09800
C734        C  0.85394443  0.90331716  0.49942157     1.09700
O735        O  0.83157408  0.83137756  0.44943363    -0.79900
O736        O  0.69551578  0.81277654  0.52971128    -0.80000
O737        O  0.70252617  0.86126697  0.40290614    -0.79900
O738        O  0.79542400  0.83062286  0.58626889    -0.79900
O739        O  0.73019792  0.85554455  0.58663277    -0.79900
O740        O  0.76840196  0.84375454  0.39713256    -0.79900
O741        O  0.80298073  0.79820338  0.50375449    -0.79800
O742        O  0.69280638  0.80763196  0.46422154    -0.79900
Co743      Co  0.79568756  0.87992679  0.43742417     1.51500
Co744      Co  0.71232832  0.87177764  0.52615559     1.51700
Co745      Co  0.70044170  0.86797672  0.46468651     1.51600
Co746      Co  0.78831933  0.85074820  0.53126206     1.51500
O747        O  0.75844421  0.86350936  0.48286453    -1.41800
C748        C  0.82898288  0.80007842  0.47354389     1.09700
C749        C  0.68601644  0.79195445  0.49886460     1.09800
C750        C  0.73221919  0.84404672  0.38335537     1.09800
C751        C  0.76075772  0.83682842  0.60486888     1.09700
O752        O  0.07871966  0.55596410  0.28799125    -0.79900
O753        O  0.05700687  0.44754183  0.20572618    -0.79900
O754        O  0.10609359  0.52763024  0.15701818    -0.79900
O755        O  0.08286281  0.46232780  0.33042498    -0.79900
O756        O  0.10701918  0.46049092  0.13830836    -0.80000
O757        O  0.12273738  0.51653550  0.33934648    -0.79900
O758        O  0.07032797  0.41001228  0.26295383    -0.79900
O759        O  0.06051260  0.54348317  0.22649866    -0.79900
C760        C  0.05180929  0.55879435  0.26084627     1.09800
C761        C  0.04752319  0.41995005  0.23215503     1.09700
C762        C  0.10100986  0.49840125  0.12983218     1.09800
C763        C  0.09498258  0.49201940  0.35258952     1.09700
O764        O  0.18960111  0.50442749  0.27815112    -0.79900
O765        O  0.17474540  0.46732081  0.18463972    -0.80000
O766        O  0.13259063  0.59645877  0.22222633    -0.79900
O767        O  0.15921029  0.40153542  0.25653667    -0.79900
O768        O  0.12715517  0.39904518  0.19744079    -0.79900
O769        O  0.15545577  0.58626563  0.28672318    -0.79900
O770        O  0.17090909  0.45370555  0.31963355    -0.79800
O771        O  0.17957375  0.53093932  0.20607883    -0.79900
Co772      Co  0.13432555  0.53002867  0.27903247     1.51500
Co773      Co  0.11507375  0.46017432  0.19568083     1.51700
Co774      Co  0.12020277  0.53506882  0.21977129     1.51600
Co775      Co  0.12028400  0.43368157  0.29062812     1.51500
O776        O  0.11643157  0.47971326  0.25087829    -1.41800
C777        C  0.19729819  0.48042011  0.30782419     1.09700
C778        C  0.19519268  0.50008314  0.18825935     1.09800
C779        C  0.15083348  0.61000812  0.25518259     1.09800
C780        C  0.15078100  0.38282226  0.22382597     1.09700
C781        C  0.47691513  0.49096893  0.54289277     0.02500
C782        C  0.47446956  0.52639023  0.51743509     0.02500
C783        C  0.50433841  0.53144656  0.48509843     0.02500
C784        C  0.53746053  0.50289100  0.48044254     0.02500
C785        C  0.54121892  0.46969990  0.50880215     0.02500
C786        C  0.50984440  0.46267130  0.53877650     0.02500
C787        C  0.97665935  0.50447293  0.96123161     0.02500
C788        C  0.00895417  0.47481425  0.96309987     0.02500
C789        C  0.03747686  0.47719131  0.99556551     0.02500
C790        C  0.03413507  0.50885680  0.02579953     0.02500
C791        C  0.00110387  0.53755496  0.02466485     0.02500
C792        C  0.97202382  0.53498754  0.99253262     0.02500
C793        C  0.06317542  0.51027630  0.05956123    -0.13000
C794        C  0.08387071  0.50794681  0.09023288    -0.14600
C795        C  0.42998787  0.47835999  0.60853243    -0.13000
C796        C  0.44751752  0.48439226  0.57615963    -0.14600
C797        C  0.44090718  0.51960495  0.93504982    -0.13000
C798        C  0.42273309  0.52283586  0.90246663    -0.14600
C799        C  0.90387119  0.58147874  0.99231130    -0.13000
C800        C  0.93606720  0.56235081  0.99255115    -0.14600
C801        C  0.59206644  0.59281298  0.01602557    -0.13000
C802        C  0.56080579  0.57314291  0.01249935    -0.14600
C803        C  0.05932785  0.49933659  0.42672555    -0.13000
C804        C  0.07714387  0.49736618  0.39353558    -0.14600
C805        C  0.61221703  0.42864178  0.50682623    -0.13000
C806        C  0.57861598  0.44485605  0.50843345    -0.14600
C807        C  0.90687383  0.42259906  0.50562764    -0.13000
C808        C  0.93821796  0.44296340  0.50346545    -0.14600
C809        C  0.75007646  0.80140056  0.67877136    -0.13000
C810        C  0.75454492  0.82053496  0.64651297    -0.14600
C811        C  0.75364714  0.69273185  0.81938053    -0.13000
C812        C  0.75752574  0.67388018  0.85121213    -0.14600
C813        C  0.75439611  0.18074177  0.14269223    -0.13000
C814        C  0.75380081  0.20083865  0.17403504    -0.14600
C815        C  0.77197908  0.30881830  0.31221728    -0.13000
C816        C  0.78007820  0.32846236  0.34276031    -0.14600
C817        C  0.77958230  0.50267940  0.31981407    -0.13100
C818        C  0.74532723  0.52771929  0.32870402     0.09100
C819        C  0.74267063  0.54728466  0.36736098    -0.13100
C820        C  0.76377743  0.52984939  0.40034769    -0.13100
C821        C  0.78813530  0.49474012  0.39302020     0.09100
C822        C  0.80229194  0.48696085  0.35256910    -0.13100
H823        H  0.78319916  0.48859319  0.28958337     0.13000
H824        H  0.71742367  0.56824213  0.37436106     0.13000
H825        H  0.75396594  0.53756963  0.43157805     0.13000
H826        H  0.82283416  0.46117329  0.34636138     0.13000
C827        C  0.76443718  0.47920400  0.13058719    -0.13100
C828        C  0.72631526  0.45938576  0.12782582     0.09100
C829        C  0.70803604  0.45557241  0.08884346    -0.13100
C830        C  0.72037553  0.48194402  0.05689176    -0.13100
C831        C  0.75311253  0.50909815  0.06317308     0.09100
C832        C  0.77831506  0.50361376  0.09768968    -0.13100
H833        H  0.77930918  0.48203801  0.16023736     0.13000
H834        H  0.67885096  0.43977510  0.08585085     0.13000
H835        H  0.70079222  0.48554963  0.03024856     0.13000
H836        H  0.80400401  0.52417485  0.10281736     0.13000
C837        C  0.57710219  0.51089918  0.09785068    -0.13000
C838        C  0.55411770  0.50867620  0.06921879    -0.14600
C839        C  0.58732860  0.50667627  0.41354292    -0.13000
C840        C  0.56633325  0.50623903  0.44508163    -0.14600
C841        C  0.67762839  0.34465928  0.27081818    -0.13000
C842        C  0.69907531  0.31492460  0.26359623    -0.14600
C843        C  0.72914832  0.79956795  0.31541797    -0.13000
C844        C  0.72603629  0.82217445  0.34513745    -0.14600
C845        C  0.75668024  0.67942095  0.18706858    -0.13000
C846        C  0.75573759  0.65952970  0.15530541    -0.14600
C847        C  0.69102883  0.66747614  0.24692610    -0.13000
C848        C  0.67073756  0.63595910  0.24523285    -0.14600
C849        C  0.28214388  0.01829109  0.61214114    -0.13100
C850        C  0.26494899  0.01408885  0.57266618     0.09100
C851        C  0.23639498  0.98246581  0.56615813    -0.13100
C852        C  0.21726901  0.96370776  0.60015910    -0.13100
C853        C  0.22648186  0.97721438  0.64033344     0.09100
C854        C  0.26214667  0.00063632  0.64625024    -0.13100
H855        H  0.30543534  0.04139605  0.61783877     0.13000
H856        H  0.22372643  0.97756130  0.53572533     0.13000
H857        H  0.19073086  0.94439892  0.59467552     0.13000
H858        H  0.27082056  0.01023815  0.67701192     0.13000
C859        C  0.50531813  0.34050227  0.26738489    -0.13100
C860        C  0.48037522  0.35120274  0.23384569     0.09100
C861        C  0.46547257  0.39192925  0.23114648    -0.13100
C862        C  0.48436913  0.42300938  0.25386811    -0.13100
C863        C  0.51795845  0.41298718  0.27882343     0.09100
C864        C  0.52324914  0.37167940  0.29086248    -0.13100
H865        H  0.51603463  0.30902770  0.27125500     0.13000
H866        H  0.44498467  0.40098198  0.20655812     0.13000
H867        H  0.47886231  0.45482991  0.24512035     0.13000
H868        H  0.54811999  0.36325520  0.31127350     0.13000
C869        C  0.58191637  0.25416710  0.97957582    -0.13100
C870        C  0.58901642  0.27979278  0.01365021     0.09100
C871        C  0.62842542  0.29682273  0.01846996    -0.13100
C872        C  0.66196774  0.27905673  0.99753108    -0.13100
C873        C  0.65547504  0.24524900  0.97142963     0.09100
C874        C  0.61543338  0.23793650  0.95737052    -0.13100
H875        H  0.55158606  0.24139974  0.97460904     0.13000
H876        H  0.63458206  0.31747683  0.04398704     0.13000
H877        H  0.69272411  0.28585709  0.00811554     0.13000
H878        H  0.60982204  0.21257755  0.93634128     0.13000
C879        C  0.50432385  0.40816798  0.07496732    -0.13000
C880        C  0.50014156  0.44015120  0.05544265    -0.14600
C881        C  0.65717074  0.26381733  0.17126073    -0.13000
C882        C  0.68855470  0.26101333  0.19165746    -0.14600
C883        C  0.59461861  0.08396899  0.98170261    -0.13000
C884        C  0.56533047  0.06207902  0.98772173    -0.14600
C885        C  0.50998619  0.07147100  0.05849351    -0.13000
C886        C  0.51075777  0.10270366  0.07945943    -0.14600
C887        C  0.77539961  0.99615458  0.85152316    -0.13100
C888        C  0.73998478  0.97159142  0.85204287     0.09100
C889        C  0.72404549  0.95851278  0.89055535    -0.13100
C890        C  0.73341738  0.98093909  0.92611179    -0.13100
C891        C  0.76231346  0.01279020  0.92356631     0.09100
C892        C  0.78712792  0.01622109  0.88773461    -0.13100
H893        H  0.78873748  0.00617033  0.82230834     0.13000
H894        H  0.69725281  0.93865188  0.89175662     0.13000
H895        H  0.71409837  0.97756068  0.95348908     0.13000
H896        H  0.80994737  0.04048633  0.88527745     0.13000
C897        C  0.71583591  0.02533986  0.60929564    -0.13100
C898        C  0.72722710  0.01203737  0.64887466     0.09100
C899        C  0.76257279  0.98748095  0.65296934    -0.13100
C900        C  0.77981828  0.96846863  0.61810322    -0.13100
C901        C  0.76065940  0.97305335  0.57959503     0.09100
C902        C  0.73205935  0.00519756  0.57450284    -0.13100
H903        H  0.68900052  0.04488569  0.60543482     0.13000
H904        H  0.77231519  0.97744174  0.68330198     0.13000
H905        H  0.80280369  0.94464512  0.62278521     0.13000
H906        H  0.71758183  0.01009938  0.54489720     0.13000
C907        C  0.66780059  0.83976152  0.75151751    -0.13000
C908        C  0.68925314  0.80972220  0.74636238    -0.14600
C909        C  0.56346839  0.98939612  0.93796397    -0.13000
C910        C  0.58463130  0.98476097  0.90716875    -0.14600
C911        C  0.46469973  0.58515809  0.28593627    -0.13100
C912        C  0.47312219  0.62573060  0.27287474     0.09100
C913        C  0.49539509  0.63177022  0.23589597    -0.13100
C914        C  0.51666619  0.59871302  0.21791186    -0.13100
C915        C  0.51672169  0.56011008  0.23788346     0.09100
C916        C  0.48697201  0.55233776  0.26876676    -0.13100
H917        H  0.44678129  0.57945177  0.31386531     0.13000
H918        H  0.50140436  0.66269672  0.22457052     0.13000
H919        H  0.53851056  0.60531307  0.19316430     0.13000
H920        H  0.48566509  0.52255604  0.28400772     0.13000
C921        C  0.58392710  0.74733092  0.50799787    -0.13100
C922        C  0.58590085  0.72067418  0.47390518     0.09100
C923        C  0.62472029  0.70517240  0.46113581    -0.13100
C924        C  0.66065623  0.72430710  0.47442227    -0.13100
C925        C  0.65802322  0.75669088  0.50289583     0.09100
C926        C  0.62014817  0.76450243  0.52319121    -0.13100
H927        H  0.55454601  0.75940596  0.51882079     0.13000
H928        H  0.62736227  0.68389601  0.43538243     0.13000
H929        H  0.68950244  0.71769810  0.45849107     0.13000
H930        H  0.61744366  0.78941788  0.54544200     0.13000
C931        C  0.50189392  0.56609667  0.45678856    -0.13000
C932        C  0.50092323  0.59521468  0.43347499    -0.14600
C933        C  0.67530406  0.72994173  0.30777666    -0.13000
C934        C  0.64339160  0.72557330  0.32699521    -0.14600
C935        C  0.55966280  0.92981917  0.51319825    -0.13000
C936        C  0.58945928  0.90744687  0.51229071    -0.14600
C937        C  0.42197444  0.04002390  0.49811162    -0.13000
C938        C  0.39259160  0.06316128  0.49758747    -0.14600
C939        C  0.54829037  0.99776981  0.57279384    -0.13000
C940        C  0.56878069  0.00431940  0.60357147    -0.14600
C941        C  0.50572476  0.92229194  0.44395165    -0.13000
C942        C  0.50779003  0.89404380  0.41943939    -0.14600
C943        C  0.46972758  0.87031724  0.21849881    -0.13100
C944        C  0.48141496  0.90645665  0.23945833     0.09100
C945        C  0.51420927  0.90471285  0.26689607    -0.13100
C946        C  0.52942186  0.86633393  0.27909418    -0.13100
C947        C  0.50912359  0.83009020  0.26670075     0.09100
C948        C  0.48231087  0.83189447  0.23332083    -0.13100
H949        H  0.44455902  0.87108748  0.19682945     0.13000
H950        H  0.52374930  0.93216395  0.28326889     0.13000
H951        H  0.55070466  0.86559329  0.30462292     0.13000
H952        H  0.46650021  0.80438520  0.22315398     0.13000
C953        C  0.51334315  0.10897598  0.25155871    -0.13100
C954        C  0.47662070  0.11280735  0.27452666     0.09100
C955        C  0.46233858  0.15259303  0.28525155    -0.13100
C956        C  0.47799464  0.18698783  0.26451235    -0.13100
C957        C  0.50926935  0.18173248  0.23484939     0.09100
C958        C  0.53036580  0.14382944  0.23261109    -0.13100
H959        H  0.52541624  0.07876386  0.24350077     0.13000
H960        H  0.43450355  0.15665258  0.30368288     0.13000
H961        H  0.46152350  0.21608079  0.26676169     0.13000
H962        H  0.55486689  0.13935755  0.20991743     0.13000
C963        C  0.26503451  0.95584173  0.37713125    -0.13100
C964        C  0.25994186  0.97202950  0.33722019     0.09100
C965        C  0.22651669  0.99828351  0.32992974    -0.13100
C966        C  0.20745508  0.01795108  0.36346248    -0.13100
C967        C  0.22307503  0.01164315  0.40323395     0.09100
C968        C  0.24743309  0.97678631  0.41069370    -0.13100
H969        H  0.29002343  0.93445877  0.38310559     0.13000
H970        H  0.22136444  0.01030183  0.29912694     0.13000
H971        H  0.18780786  0.04433618  0.35736805     0.13000
H972        H  0.25922951  0.97098758  0.44136016     0.13000
C973        C  0.44559966  0.00999734  0.07125756    -0.13000
C974        C  0.42500333  0.01332038  0.10271335    -0.14600
C975        C  0.41716100  0.97438589  0.40487856    -0.13000
C976        C  0.43656576  0.97577705  0.43658845    -0.14600
C977        C  0.62161055  0.22490335  0.50037007    -0.13100
C978        C  0.60001431  0.24256743  0.53430126     0.09100
C979        C  0.61183891  0.28145808  0.54795337    -0.13100
C980        C  0.64792975  0.29827552  0.53538402    -0.13100
C981        C  0.66764415  0.28478545  0.49960552     0.09100
C982        C  0.65428339  0.24763238  0.48116992    -0.13100
H983        H  0.61257110  0.19521868  0.48820826     0.13000
H984        H  0.59458148  0.29864420  0.57092480     0.13000
H985        H  0.65928080  0.32292991  0.55397978     0.13000
H986        H  0.66953071  0.23588295  0.45359542     0.13000
C987        C  0.45945731  0.10191621  0.74302965    -0.13100
C988        C  0.47150306  0.14334520  0.74527200     0.09100
C989        C  0.49571175  0.15576307  0.77860218    -0.13100
C990        C  0.51944941  0.12620385  0.79870698    -0.13100
C991        C  0.51821543  0.08522741  0.78459818     0.09100
C992        C  0.48364494  0.07222878  0.76250753    -0.13100
H993        H  0.43895691  0.09186818  0.71889127     0.13000
H994        H  0.50366712  0.18801145  0.78228968     0.13000
H995        H  0.54431968  0.13675947  0.81798629     0.13000
H996        H  0.48045324  0.04022223  0.75337242     0.13000
C997        C  0.38996439  0.27535415  0.52484086    -0.13100
C998        C  0.42847019  0.25572555  0.52071506     0.09100
C999        C  0.43513125  0.22813598  0.48792785    -0.13100
C1000       C  0.40162532  0.21351587  0.46585347    -0.13100
C1001       C  0.36145384  0.22541568  0.47776551     0.09100
C1002       C  0.35619179  0.25961336  0.50392099    -0.13100
H1003       H  0.38424388  0.29734570  0.54952567     0.13000
H1004       H  0.46482211  0.21323368  0.48369636     0.13000
H1005       H  0.40674343  0.18785644  0.44490420     0.13000
H1006       H  0.32559536  0.27004172  0.51282325     0.13000
C1007       C  0.51712360  0.32653968  0.77369540    -0.13100
C1008       C  0.54147462  0.33324269  0.73813755     0.09100
C1009       C  0.55144916  0.37401307  0.72742963    -0.13100
C1010       C  0.52432376  0.40538853  0.73938724    -0.13100
C1011       C  0.49144649  0.39602170  0.76616732     0.09100
C1012       C  0.49119783  0.35819389  0.78743677    -0.13100
H1013       H  0.51078213  0.29533184  0.78404785     0.13000
H1014       H  0.57237921  0.38009737  0.70175598     0.13000
H1015       H  0.52590026  0.43506196  0.72395998     0.13000
H1016       H  0.46675434  0.35087551  0.80938150     0.13000
C1017       C  0.50944681  0.42574744  0.56495017    -0.13000
C1018       C  0.50371340  0.39532091  0.58619715    -0.14600
C1019       C  0.47547013  0.08584875  0.57817385    -0.13000
C1020       C  0.48048184  0.05383423  0.55986128    -0.14600
C1021       C  0.26052122  0.16724596  0.64466140    -0.13000
C1022       C  0.25732735  0.18800630  0.67603217    -0.14600
C1023       C  0.17002066  0.14891997  0.73554995    -0.13000
C1024       C  0.19122287  0.17956781  0.73713556    -0.14600
C1025       C  0.32162328  0.34829628  0.74826798    -0.13000
C1026       C  0.30140689  0.31712618  0.74700802    -0.14600
C1027       C  0.31967938  0.25134308  0.68916594    -0.13000
C1028       C  0.35322914  0.25158101  0.67184705    -0.14600
C1029       C  0.25465595  0.53090808  0.90248900    -0.13100
C1030       C  0.22840630  0.49711349  0.89763815     0.09100
C1031       C  0.21336965  0.48859593  0.85802581    -0.13100
C1032       C  0.23607356  0.50183366  0.82356228    -0.13100
C1033       C  0.27062287  0.52659174  0.82958878     0.09100
C1034       C  0.27570703  0.54615944  0.86788693    -0.13100
H1035       H  0.26564356  0.53899146  0.93291293     0.13000
H1036       H  0.19175015  0.46357098  0.85380736     0.13000
H1037       H  0.23125563  0.48702487  0.79398570     0.13000
H1038       H  0.30182133  0.56626393  0.87271971     0.13000
C1039       C  0.28492057  0.45933691  0.13247443    -0.13100
C1040       C  0.27442282  0.47562907  0.09370049     0.09100
C1041       C  0.25137947  0.51230986  0.09219775    -0.13100
C1042       C  0.23162562  0.52680295  0.12799614    -0.13100
C1043       C  0.23376604  0.50370720  0.16470282     0.09100
C1044       C  0.26339209  0.47239536  0.16784407    -0.13100
H1045       H  0.30290613  0.43116388  0.13443140     0.13000
H1046       H  0.24298712  0.52549003  0.06264820     0.13000
H1047       H  0.20874525  0.55103998  0.12494754     0.13000
H1048       H  0.26537654  0.45416060  0.19586217     0.13000
C1049       C  0.39583507  0.28107527  0.94712310    -0.13100
C1050       C  0.35472411  0.27385182  0.95935932     0.09100
C1051       C  0.34582784  0.23919487  0.98392050    -0.13100
C1052       C  0.37758470  0.22037644  0.00556094    -0.13100
C1053       C  0.41730116  0.23703652  0.00275098     0.09100
C1054       C  0.42740207  0.26326512  0.96983773    -0.13100
H1055       H  0.40362052  0.30644373  0.92662865     0.13000
H1056       H  0.31431063  0.23183998  0.99245907     0.13000
H1057       H  0.36961444  0.19929075  0.03045426     0.13000
H1058       H  0.45822616  0.27572710  0.96679730     0.13000
C1059       C  0.10081793  0.42513393  0.99238481    -0.13000
C1060       C  0.07138231  0.44775922  0.99618408    -0.14600
C1061       C  0.40182942  0.43203474  0.99677838    -0.13000
C1062       C  0.43250055  0.45320679  0.99748173    -0.14600
C1063       C  0.23593858  0.33129250  0.83686595    -0.13000
C1064       C  0.23695745  0.30803727  0.80737616    -0.14600
C1065       C  0.18915406  0.31141406  0.22230230    -0.13000
C1066       C  0.16926378  0.34277236  0.21832017    -0.14600
C1067       C  0.23301158  0.18965094  0.30675946    -0.13000
C1068       C  0.22978878  0.17074462  0.33933308    -0.14600
C1069       C  0.31588346  0.23378724  0.18271388    -0.13000
C1070       C  0.34834147  0.23353721  0.16368531    -0.14600
C1071       C  0.29865174  0.17487617  0.24569877    -0.13000
C1072       C  0.32056841  0.14481345  0.24685149    -0.14600
C1073       C  0.25897879  0.29967309  0.16687346    -0.13000
C1074       C  0.26590974  0.32020193  0.13585633    -0.14600
C1075       C  0.85692326  0.21524571  0.46724199    -0.13100
C1076       C  0.89747564  0.22656034  0.47706493     0.09100
C1077       C  0.90376818  0.25224837  0.51129353    -0.13100
C1078       C  0.87050337  0.27391690  0.52847849    -0.13100
C1079       C  0.83160052  0.27080931  0.51027601     0.09100
C1080       C  0.82395952  0.23816036  0.48316191    -0.13100
H1081       H  0.85094664  0.19434310  0.44189905     0.13000
H1082       H  0.93465277  0.26051868  0.52036147     0.13000
H1083       H  0.87685773  0.29851877  0.55015825     0.13000
H1084       H  0.79389282  0.23471528  0.46947755     0.13000
C1085       C  0.08440502  0.23443148  0.51345105    -0.13100
C1086       C  0.08394337  0.26139222  0.47968353     0.09100
C1087       C  0.12071763  0.28103402  0.46742000    -0.13100
C1088       C  0.15838512  0.26473389  0.47990734    -0.13100
C1089       C  0.15877933  0.23152007  0.50751911     0.09100
C1090       C  0.12210934  0.22074767  0.52858288    -0.13100
H1091       H  0.05642698  0.21899735  0.52341321     0.13000
H1092       H  0.12086208  0.30226180  0.44145924     0.13000
H1093       H  0.18626174  0.27359709  0.46343037     0.13000
H1094       H  0.12182187  0.19529149  0.55038660     0.13000
C1095       C  0.95934339  0.36564903  0.26953470    -0.13100
C1096       C  0.97806611  0.32667128  0.26482260     0.09100
C1097       C  0.00497822  0.31998522  0.23124273    -0.13100
C1098       C  0.02168297  0.35395253  0.21070312    -0.13100
C1099       C  0.01212637  0.39379194  0.22500274     0.09100
C1100       C  0.97737344  0.39974083  0.25028846    -0.13100
H1101       H  0.93726969  0.37125297  0.29436233     0.13000
H1102       H  0.01881588  0.28987352  0.22618772     0.13000
H1103       H  0.04811558  0.34902479  0.19042480     0.13000
H1104       H  0.96920569  0.43040845  0.26106268     0.13000
C1105       C  0.99768866  0.40094001  0.41923753    -0.13000
C1106       C  0.00008301  0.43302944  0.43921890    -0.14600
C1107       C  0.83075546  0.24840395  0.29633405    -0.13000
C1108       C  0.85994942  0.25118020  0.31887044    -0.14600
C1109       C  0.15078420  0.25446086  0.32114735    -0.13000
C1110       C  0.17807665  0.25657503  0.29499679    -0.14600
C1111       C  0.73733467  0.48526940  0.67681651    -0.13100
C1112       C  0.76786250  0.51552505  0.67306205     0.09100
C1113       C  0.77007946  0.53932072  0.63675135    -0.13100
C1114       C  0.75271614  0.52394096  0.60075703    -0.13100
C1115       C  0.73055753  0.48702808  0.60257332     0.09100
C1116       C  0.71737516  0.47193538  0.64136738    -0.13100
H1117       H  0.73438271  0.46719016  0.70492833     0.13000
H1118       H  0.79261160  0.56377322  0.63364203     0.13000
H1119       H  0.76249626  0.53655978  0.57118721     0.13000
H1120       H  0.69928456  0.44392144  0.64349835     0.13000
C1121       C  0.77302933  0.46304730  0.88634707    -0.13100
C1122       C  0.76984585  0.47504784  0.84477489     0.09100
C1123       C  0.73671976  0.50044206  0.83327606    -0.13100
C1124       C  0.71532586  0.52275174  0.86359280    -0.13100
C1125       C  0.72729678  0.51929180  0.90502250     0.28300
C1126       C  0.75168955  0.48540108  0.91667264    -0.13100
H1127       H  0.79714868  0.44211785  0.89603285     0.13000
H1128       H  0.73232373  0.50868874  0.80113552     0.13000
H1129       H  0.69521055  0.54756183  0.85381966     0.13000
H1130       H  0.75987733  0.48086176  0.94874587     0.13000
C1131       C  0.94565506  0.50516007  0.56386669    -0.13000
C1132       C  0.92250423  0.49917106  0.59284311    -0.14600
C1133       C  0.92853931  0.50584992  0.89552135    -0.13000
C1134       C  0.94917405  0.50500684  0.92626655    -0.14600
C1135       C  0.80978211  0.67943094  0.75324995    -0.13000
C1136       C  0.82960930  0.64790008  0.75869703    -0.14600
C1137       C  0.67846004  0.14367504  0.74059287    -0.13000
C1138       C  0.69937675  0.17445035  0.74297450    -0.14600
C1139       C  0.75788801  0.16057854  0.83984901    -0.13000
C1140       C  0.76027082  0.18073185  0.80809641    -0.14600
C1141       C  0.65196877  0.24175835  0.67611738    -0.13000
C1142       C  0.68530495  0.24399824  0.69205332    -0.14600
C1143       C  0.75013288  0.33085530  0.65414530    -0.13000
C1144       C  0.74925439  0.30642071  0.68249562    -0.14600
C1145       C  0.81559600  0.30847971  0.73813060    -0.13000
C1146       C  0.83520442  0.34037212  0.73491426    -0.14600
C1147       C  0.50015923  0.84298295  0.74851618    -0.13100
C1148       C  0.47770363  0.84999435  0.78514048     0.09100
C1149       C  0.46709823  0.89088076  0.79601514    -0.13100
C1150       C  0.48756445  0.92372992  0.77706717    -0.13100
C1151       C  0.51696168  0.91561015  0.74605850     0.09100
C1152       C  0.51871618  0.87616789  0.72810448    -0.13100
H1153       H  0.50808098  0.81183365  0.73907047     0.13000
H1154       H  0.44901453  0.89733981  0.82369597     0.13000
H1155       H  0.48541364  0.95413241  0.79095759     0.13000
H1156       H  0.54090697  0.86949198  0.70364414     0.13000
C1157       C  0.66879832  0.78182473  0.99580586    -0.13100
C1158       C  0.66349692  0.74919740  0.02379138     0.09100
C1159       C  0.62572711  0.74531553  0.04502262    -0.13100
C1160       C  0.59086404  0.76430190  0.02881946    -0.13100
C1161       C  0.59493083  0.78779976  0.99257187     0.09100
C1162       C  0.63415983  0.80244716  0.98111572    -0.13100
H1163       H  0.69801434  0.78590026  0.97974288     0.13000
H1164       H  0.62133877  0.72083293  0.06753117     0.13000
H1165       H  0.56077998  0.75382988  0.03915584     0.13000
H1166       H  0.63804096  0.82207305  0.95417759     0.13000
C1167       C  0.49801163  0.68446306  0.74322725    -0.13100
C1168       C  0.52366188  0.68258841  0.77746521     0.09100
C1169       C  0.54074200  0.64429757  0.78910376    -0.13100
C1170       C  0.52157905  0.60807948  0.77673694    -0.13100
C1171       C  0.48925445  0.61059667  0.74895136     0.09100
C1172       C  0.48120854  0.64806407  0.72839728    -0.13100
H1173       H  0.48526542  0.71372910  0.73322042     0.13000
H1174       H  0.56184745  0.64231281  0.81472057     0.13000
H1175       H  0.52869265  0.57924932  0.79213127     0.13000
H1176       H  0.45670062  0.65031308  0.70607328     0.13000
C1177       C  0.50793962  0.61023320  0.92386294    -0.13000
C1178       C  0.50475811  0.57949654  0.94488631    -0.14600
C1179       C  0.65708611  0.75681438  0.83562307    -0.13000
C1180       C  0.68686580  0.75250443  0.81266793    -0.14600
C1181       C  0.50444529  0.89852726  0.93339564    -0.13000
C1182       C  0.50301824  0.92993532  0.95279278    -0.14600
C1183       C  0.18940721  0.81540210  0.76988364    -0.13000
C1184       C  0.16950114  0.84718592  0.77245133    -0.14600
C1185       C  0.32412265  0.64984945  0.75165774    -0.13000
C1186       C  0.30085599  0.67873087  0.75144134    -0.14600
C1187       C  0.31421921  0.73817034  0.81290057    -0.13000
C1188       C  0.34529362  0.73296963  0.83207558    -0.14600
C1189       C  0.22186110  0.54584943  0.39303214    -0.13100
C1190       C  0.25838663  0.53103792  0.40891160     0.09100
C1191       C  0.27825374  0.49700065  0.39014067    -0.13100
C1192       C  0.25921613  0.47784404  0.35602048    -0.13100
C1193       C  0.22437102  0.49700444  0.33872289     0.09100
C1194       C  0.20870488  0.53276260  0.35615151    -0.13100
H1195       H  0.20390326  0.56946729  0.40775800     0.13000
H1196       H  0.30678714  0.48491269  0.40231996     0.13000
H1197       H  0.27176651  0.44969920  0.34287295     0.13000
H1198       H  0.18361537  0.55000780  0.34287986     0.13000
C1199       C  0.22852968  0.52546037  0.63031184    -0.13100
C1200       C  0.24634605  0.51733552  0.59118452     0.09100
C1201       C  0.27472427  0.48490617  0.58736152    -0.13100
C1202       C  0.29073618  0.46658545  0.62289754    -0.13100
C1203       C  0.28014688  0.48228938  0.66221971     0.09100
C1204       C  0.24619710  0.50883056  0.66593331    -0.13100
H1205       H  0.20675397  0.55068493  0.63402695     0.13000
H1206       H  0.28915456  0.47833356  0.55766366     0.13000
H1207       H  0.31702744  0.44612751  0.61933593     0.13000
H1208       H  0.23778405  0.52174972  0.69579882     0.13000
C1209       C  0.34037034  0.77654338  0.50480850    -0.13100
C1210       C  0.34779604  0.74474267  0.53304229     0.09100
C1211       C  0.38772946  0.73944546  0.54817453    -0.13100
C1212       C  0.42073955  0.75290193  0.52381160    -0.13100
C1213       C  0.41244701  0.77410800  0.48719091     0.09100
C1214       C  0.37339874  0.79171263  0.48160705    -0.13100
H1215       H  0.30942377  0.78224489  0.49398654     0.13000
H1216       H  0.39366632  0.71621194  0.57152652     0.13000
H1217       H  0.45105076  0.73997514  0.52903719     0.13000
H1218       H  0.36690620  0.80923328  0.45384001     0.13000
C1219       C  0.44045784  0.55615044  0.52425573    -0.13000
C1220       C  0.40993036  0.57797164  0.52898762    -0.14600
C1221       C  0.10290393  0.58080228  0.49639820    -0.13000
C1222       C  0.07220429  0.55955808  0.49355346    -0.14600
C1223       C  0.23654138  0.68780995  0.69379869    -0.13000
C1224       C  0.24091552  0.66607076  0.66354408    -0.14600
C1225       C  0.34272324  0.76282640  0.33047793    -0.13000
C1226       C  0.31117762  0.76129540  0.31070685    -0.14600
C1227       C  0.30544223  0.81518249  0.24104515    -0.13000
C1228       C  0.32897166  0.84411171  0.23924260    -0.14600
C1229       C  0.16893067  0.65096293  0.25666848    -0.13000
C1230       C  0.18901863  0.68253355  0.25906478    -0.14600
C1231       C  0.25093784  0.68144068  0.36018377    -0.13000
C1232       C  0.24788211  0.69957993  0.32694374    -0.14600
C1233       C  0.90802882  0.74761661  0.99027212    -0.13100
C1234       C  0.89903105  0.77349516  0.02404002     0.09100
C1235       C  0.85830908  0.78758813  0.02990513    -0.13100
C1236       C  0.82624857  0.76747023  0.01010064    -0.13100
C1237       C  0.83520075  0.73429611  0.98369096     0.09100
C1238       C  0.87590146  0.72853520  0.96946337    -0.13100
H1239       H  0.93929938  0.73731319  0.98413152     0.13000
H1240       H  0.85047844  0.80872382  0.05476924     0.13000
H1241       H  0.79490102  0.77309586  0.02063574     0.13000
H1242       H  0.88346405  0.70365633  0.94824939     0.13000
C1243       C  0.96443100  0.61950145  0.22380309    -0.13100
C1244       C  0.98073607  0.65853725  0.23323707     0.09100
C1245       C  0.00802096  0.66188791  0.26628800    -0.13100
C1246       C  0.02541913  0.62624011  0.28316211    -0.13100
C1247       C  0.01691122  0.58751526  0.26557686     0.09100
C1248       C  0.98328596  0.58391816  0.23916112    -0.13100
H1249       H  0.94277331  0.61604082  0.19885902     0.13000
H1250       H  0.02058930  0.69165794  0.27457330     0.13000
H1251       H  0.05094591  0.62979840  0.30408754     0.13000
H1252       H  0.97580922  0.55432313  0.22564094     0.13000
C1253       C  0.99772713  0.57067578  0.05548490    -0.13000
C1254       C  0.99486775  0.60069688  0.07793407    -0.14600
C1255       C  0.84907525  0.74257611  0.18065191    -0.13000
C1256       C  0.81706178  0.74261083  0.20037488    -0.14600
C1257       C  0.14931569  0.74535346  0.17226094    -0.13000
C1258       C  0.17921045  0.74321755  0.19438466    -0.14600
C1259       C  0.10230535  0.79723086  0.96889302    -0.13100
C1260       C  0.14221911  0.78510970  0.98067263     0.09100
C1261       C  0.14700090  0.74888562  0.00386088    -0.13100
C1262       C  0.11241815  0.73036294  0.02192974    -0.13100
C1263       C  0.07366999  0.74944324  0.01854502     0.09100
C1264       C  0.06805693  0.78011665  0.98874962    -0.13100
H1265       H  0.09752564  0.82449798  0.95010443     0.13000
H1266       H  0.17735086  0.73837061  0.01268229     0.13000
H1267       H  0.11720060  0.70642026  0.04484593     0.13000
H1268       H  0.03837044  0.79511989  0.98570660     0.13000
C1269       C  0.31240488  0.73661991  0.98780801    -0.13100
C1270       C  0.31867242  0.76535112  0.01948196     0.09100
C1271       C  0.35387976  0.76162279  0.04389596    -0.13100
C1272       C  0.38783402  0.74004291  0.02809621    -0.13100
C1273       C  0.38496101  0.72096726  0.98936854     0.09100
C1274       C  0.34563550  0.71280907  0.97374538    -0.13100
H1275       H  0.28484629  0.73808989  0.96932228     0.13000
H1276       H  0.35871958  0.78259104  0.06946882     0.13000
H1277       H  0.41772566  0.74552681  0.04145637     0.13000
H1278       H  0.34246679  0.69669411  0.94458275     0.13000
C1279       C  0.21973428  0.97778912  0.13745781    -0.13100
C1280       C  0.23580922  0.98673888  0.09793170     0.09100
C1281       C  0.26233035  0.02057285  0.09315628    -0.13100
C1282       C  0.28033451  0.03799124  0.12795393    -0.13100
C1283       C  0.27262225  0.02058868  0.16720352     0.09100
C1284       C  0.23877343  0.99414795  0.17227166    -0.13100
H1285       H  0.19853808  0.95234605  0.14186426     0.13000
H1286       H  0.27448609  0.02862769  0.06282324     0.13000
H1287       H  0.30561241  0.05929590  0.12314750     0.13000
H1288       H  0.23150006  0.98108124  0.20234621     0.13000
C1289       C  0.25906393  0.02765720  0.89919687    -0.13100
C1290       C  0.28331735  0.99176439  0.89867613     0.09100
C1291       C  0.29492607  0.97524993  0.85996880    -0.13100
C1292       C  0.27043634  0.98346100  0.82563715    -0.13100
C1293       C  0.23834659  0.01225086  0.82917461     0.09100
C1294       C  0.23661650  0.03813861  0.86410320    -0.13100
H1295       H  0.25062675  0.04192215  0.92842609     0.13000
H1296       H  0.31503037  0.94847813  0.85852678     0.13000
H1297       H  0.27289754  0.96365178  0.79872531     0.13000
H1298       H  0.21250331  0.06119837  0.86726396     0.13000
C1299       C  0.26603484  0.83092584  0.85087476    -0.13000
C1300       C  0.26076237  0.80789063  0.82195007    -0.14600
C1301       C  0.23527272  0.82849562  0.15211609    -0.13000
C1302       C  0.23870477  0.80738234  0.18315865    -0.14600
C1303       C  0.43765047  0.94308873  0.01028056    -0.13000
C1304       C  0.40822005  0.92075316  0.00531002    -0.14600
C1305       C  0.99680643  0.83874753  0.78194242    -0.13100
C1306       C  0.97053657  0.84478964  0.74841879     0.09100
C1307       C  0.95468639  0.88460158  0.74159543    -0.13100
C1308       C  0.97533436  0.91865115  0.75773824    -0.13100
C1309       C  0.00987425  0.91216595  0.78240285     0.09100
C1310       C  0.01619703  0.87282100  0.79950041    -0.13100
H1311       H  0.00883382  0.80820281  0.78843151     0.13000
H1312       H  0.93353618  0.88989626  0.71647649     0.13000
H1313       H  0.96949390  0.94889161  0.74464631     0.13000
H1314       H  0.04235993  0.86728656  0.81924771     0.13000
C1315       C  0.03619611  0.62187416  0.72615289    -0.13100
C1316       C  0.01786192  0.66038852  0.73429860     0.09100
C1317       C  0.99068795  0.66423649  0.76820248    -0.13100
C1318       C  0.97411385  0.62877332  0.78629543    -0.13100
C1319       C  0.98375726  0.59004775  0.76912611     0.09100
C1320       C  0.01851754  0.58638793  0.74310038    -0.13100
H1321       H  0.05801570  0.61827780  0.70072676     0.13000
H1322       H  0.97691452  0.69388666  0.77566661     0.13000
H1323       H  0.94798316  0.63230624  0.80722997     0.13000
H1324       H  0.02711800  0.55664560  0.73023335     0.13000
C1325       C  0.14598946  0.79129157  0.53699569    -0.13100
C1326       C  0.10572898  0.77873208  0.52763683     0.09100
C1327       C  0.09961730  0.75416552  0.49255689    -0.13100
C1328       C  0.13324878  0.73421283  0.47403926    -0.13100
C1329       C  0.17233044  0.73796759  0.49174056     0.09100
C1330       C  0.17940526  0.77015536  0.51960385    -0.13100
H1331       H  0.15170724  0.81149132  0.56297057     0.13000
H1332       H  0.06884665  0.74515667  0.48378816     0.13000
H1333       H  0.12728465  0.71013417  0.45167286     0.13000
H1334       H  0.20958794  0.77422968  0.53285858     0.13000
C1335       C  0.93643527  0.77347630  0.48630354    -0.13100
C1336       C  0.93069961  0.74167213  0.51502936     0.09100
C1337       C  0.89474447  0.71778158  0.51372891    -0.13100
C1338       C  0.86043952  0.73326571  0.49342463    -0.13100
C1339       C  0.86355098  0.77086808  0.47230587     0.09100
C1340       C  0.90289116  0.78738533  0.46383290    -0.13100
H1341       H  0.96433757  0.79174556  0.48637559     0.13000
H1342       H  0.89021210  0.69242531  0.53520141     0.13000
H1343       H  0.83062236  0.71945956  0.49947332     0.13000
H1344       H  0.90641647  0.81585997  0.44653148     0.13000
C1345       C  0.14452302  0.74915163  0.68626737    -0.13000
C1346       C  0.17481743  0.75048583  0.70750562    -0.14600
C1347       C  0.01503173  0.60273651  0.57563173    -0.13000
C1348       C  0.01014474  0.57067830  0.55584882    -0.14600
C1349       C  0.81306595  0.74157517  0.68687177    -0.13000
C1350       C  0.84314934  0.74719558  0.66544732    -0.14600
C1351       C  0.89224967  0.92544392  0.50361966    -0.13000
C1352       C  0.92305762  0.94652125  0.50366435    -0.14600
C1353       C  0.09131634  0.08033416  0.50707774    -0.13000
C1354       C  0.06058541  0.05894032  0.50836233    -0.14600
C1355       C  0.04386543  0.00446523  0.57644986    -0.13000
C1356       C  0.06503210  0.00543038  0.60692308    -0.14600
C1357       C  0.01670695  0.08858037  0.41691611    -0.13000
C1358       C  0.00938586  0.05846280  0.43818313    -0.14600
C1359       C  0.97964672  0.90945206  0.58904281    -0.13000
C1360       C  0.98094230  0.94094350  0.56874208    -0.14600
C1361       C  0.02373429  0.07315726  0.25498503    -0.13100
C1362       C  0.99100568  0.07870943  0.22784650     0.09100
C1363       C  0.98692215  0.11656396  0.20712336    -0.13100
C1364       C  0.00579670  0.15145198  0.22340152    -0.13100
C1365       C  0.02989709  0.14719321  0.25868275     0.09100
C1366       C  0.04444053  0.10778436  0.26945974    -0.13100
H1367       H  0.02779754  0.04392169  0.27077891     0.13000
H1368       H  0.96224512  0.12106445  0.18531139     0.13000
H1369       H  0.99494360  0.18168094  0.21404468     0.13000
H1370       H  0.06402074  0.10401544  0.29610490     0.13000
C1371       C  0.72961304  0.02049366  0.18011378    -0.13100
C1372       C  0.76013423  0.99042526  0.17450278     0.09100
C1373       C  0.76539935  0.97212597  0.13535890    -0.13100
C1374       C  0.74853074  0.99108263  0.10062439    -0.13100
C1375       C  0.72457391  0.02688182  0.10555040     0.09100
C1376       C  0.71106273  0.03808144  0.14566262    -0.13100
H1377       H  0.72498835  0.03481409  0.21011296     0.13000
H1378       H  0.78878871  0.94858579  0.13051013     0.13000
H1379       H  0.75871730  0.98122578  0.07013170     0.13000
H1380       H  0.69170067  0.06498342  0.15059156     0.13000
C1381       C  0.72611009  0.00171837  0.34302239    -0.13100
C1382       C  0.76133298  0.02477167  0.35223724     0.09100
C1383       C  0.76700769  0.03786091  0.39325147    -0.13100
C1384       C  0.74567967  0.01795331  0.42521672    -0.13100
C1385       C  0.71914372  0.98551832  0.41556152     0.09100
C1386       C  0.70411625  0.98282612  0.37518277    -0.13100
H1387       H  0.71996236  0.99254258  0.31148590     0.13000
H1388       H  0.79294556  0.05706280  0.40126425     0.13000
H1389       H  0.75655997  0.02149821  0.45655360     0.13000
H1390       H  0.68233999  0.95886189  0.36738512     0.13000
C1391       C  0.01013384  0.91834887  0.25829179    -0.13100
C1392       C  0.97470091  0.91174292  0.28253267     0.09100
C1393       C  0.96847478  0.87272176  0.30066190    -0.13100
C1394       C  0.98876097  0.83861965  0.28367407    -0.13100
C1395       C  0.01603866  0.84465153  0.25039061     0.09100
C1396       C  0.03195995  0.88428746  0.24323384    -0.13100
H1397       H  0.01634957  0.94850791  0.24511569     0.13000
H1398       H  0.94214260  0.86715376  0.32083807     0.13000
H1399       H  0.97701723  0.80804083  0.29046808     0.13000
H1400       H  0.05420760  0.88927016  0.21842855     0.13000
C1401       C  0.81874627  0.84192142  0.26273608    -0.13000
C1402       C  0.79922957  0.80967617  0.25962038    -0.14600
C1403       C  0.83518591  0.15314133  0.23185531    -0.13000
C1404       C  0.81673002  0.18580428  0.23267795    -0.14600
C1405       C  0.91955545  0.99256324  0.40250195    -0.13000
C1406       C  0.94094408  0.99691497  0.43285596    -0.14600
C1407       C  0.09266091  0.27052563  0.01203496    -0.13100
C1408       C  0.09237128  0.24469812  0.97755941     0.09100
C1409       C  0.12953852  0.22681526  0.96324631    -0.13100
C1410       C  0.16694027  0.24309033  0.97598682    -0.13100
C1411       C  0.16675248  0.27477763  0.00532158     0.09100
C1412       C  0.13016694  0.28382658  0.02737735    -0.13100
H1413       H  0.06440621  0.28464634  0.02336983     0.13000
H1414       H  0.12982147  0.20652456  0.93658527     0.13000
H1415       H  0.19483103  0.23553645  0.95876194     0.13000
H1416       H  0.12949544  0.30796706  0.05058376     0.13000
C1417       C  0.96768955  0.11940848  0.78613941    -0.13100
C1418       C  0.98253502  0.15886396  0.77532300     0.09100
C1419       C  0.00865259  0.16255003  0.74061876    -0.13100
C1420       C  0.02610129  0.12718028  0.72272162    -0.13100
C1421       C  0.01875413  0.08811333  0.74053877     0.09100
C1422       C  0.98635626  0.08409636  0.76937484    -0.13100
H1423       H  0.94691290  0.11551913  0.81235519     0.13000
H1424       H  0.02006611  0.19255098  0.73114276     0.13000
H1425       H  0.05043912  0.13126627  0.69983556     0.13000
H1426       H  0.97952326  0.05432945  0.78311826     0.13000
C1427       C  0.04515245  0.37274874  0.76354094    -0.13100
C1428       C  0.02564149  0.33471357  0.75726281     0.09100
C1429       C  0.00022215  0.33003590  0.72303276    -0.13100
C1430       C  0.98545487  0.36527371  0.70325809    -0.13100
C1431       C  0.99406307  0.40408887  0.72034201     0.09100
C1432       C  0.02833863  0.40811545  0.74576613    -0.13100
H1433       H  0.06587893  0.37657992  0.78925081     0.13000
H1434       H  0.98556997  0.30066080  0.71710162     0.13000
H1435       H  0.95983241  0.36177160  0.68241875     0.13000
H1436       H  0.03623506  0.43797824  0.75842921     0.13000
C1437       C  0.85035463  0.29101679  0.97158889    -0.13100
C1438       C  0.89072601  0.27872939  0.98119016     0.09100
C1439       C  0.89700398  0.25498168  0.01686936    -0.13100
C1440       C  0.86370763  0.23433077  0.03489909    -0.13100
C1441       C  0.82509122  0.23670680  0.01596644     0.09100
C1442       C  0.81728415  0.26923576  0.98856178    -0.13100
H1443       H  0.84448847  0.31097986  0.94539908     0.13000
H1444       H  0.92786081  0.24657221  0.02611629     0.13000
H1445       H  0.87004629  0.21050577  0.05751372     0.13000
H1446       H  0.78720767  0.27272500  0.97484155     0.13000
C1447       C  0.15317284  0.24020648  0.82642821    -0.13000
C1448       C  0.18216804  0.23963435  0.80255317    -0.14600
C1449       C  0.01241130  0.44027102  0.93345084    -0.13000
C1450       C  0.01527601  0.40824233  0.91366552    -0.14600
C1451       C  0.85311692  0.24109646  0.82217158    -0.13000
C1452       C  0.82368098  0.24170856  0.79973274    -0.14600
C1453       C  0.90001687  0.08055467  0.00857081    -0.13000
C1454       C  0.93106268  0.05963161  0.00923560    -0.14600
C1455       C  0.06336992  0.01538340  0.94255834    -0.13000
C1456       C  0.08490874  0.01445972  0.91146670    -0.14600
C1457       C  0.01128435  0.94023280  0.06713924    -0.13000
C1458       C  0.01380783  0.90918654  0.08831005    -0.14600
C1459       C  0.07550351  0.95796892  0.00951718    -0.13000
C1460       C  0.10747904  0.93930912  0.01096026    -0.14600
C1461       C  0.91607270  0.99050061  0.09964783    -0.13000
C1462       C  0.93919845  0.99335015  0.06994449    -0.14600
C1463       C  0.99035563  0.10382946  0.92759862    -0.13000
C1464       C  0.99455501  0.07282557  0.94835389    -0.14600
loop_ 
_geom_bond_atom_site_label_1 
_geom_bond_atom_site_label_2 
_geom_bond_distance 
_geom_bond_site_symmetry_2 
_ccdc_geom_bond_type 
C1            C2   1.418   1_564  A
C1            C6   1.413       .  A
C1         C1459   1.443       .  S
C2            C3   1.416   1_455  A
C2         C1455   1.468       .  S
C3            C4   1.422   1_556  A
C3         C1464   1.466       .  S
C4            C5   1.428   1_545  A
C4         C1454   1.461       .  S
C5            C6   1.418   1_655  A
C5         C1462   1.463       .  S
C6         C1457   1.473       .  S
O7           C15   1.252   1_455  A
O7          Co27   1.957       .  S
O8           C16   1.274   1_655  A
O8          Co28   1.993       .  S
O9           C17   1.275       .  A
O9          Co29   2.020       .  S
O10          C18   1.291       .  A
O10         Co30   1.963       .  S
O11          C17   1.261       .  A
O11         Co28   1.969       .  S
O12          C18   1.295       .  A
O12         Co27   2.004       .  S
O13          C16   1.258       .  A
O13         Co30   1.958       .  S
O14          C15   1.263       .  A
O14         Co29   2.029       .  S
C15        C1418   1.478       .  S
C16        C1428   1.453       .  S
C17        C1451   1.436       .  S
C18        C1447   1.438       .  S
O19          C32   1.245       .  A
O19         Co27   1.976       .  S
O20          C33   1.284       .  A
O20         Co28   2.010       .  S
O21          C34   1.282       .  A
O21         Co29   1.899       .  S
O22          C35   1.279       .  A
O22         Co30   2.035       .  S
O23          C35   1.261   1_655  A
O23         Co28   1.975       .  S
O24          C34   1.311   1_455  A
O24         Co27   2.118       .  S
O25          C32   1.249       .  A
O25         Co30   1.964       .  S
O26          C33   1.280       .  A
O26         Co29   1.968       .  S
Co27         O31   2.047   1_455  S
Co28         O31   1.961       .  S
Co29         O31   1.900       .  S
Co30         O31   1.970   1_455  S
C32        C1408   1.456       .  S
C33        C1438   1.471       .  S
C34        C1463   1.450       .  S
C35        C1450   1.458       .  S
O36          C44   1.258   1_545  A
O36         Co56   1.959       .  S
O37          C45   1.278   1_565  A
O37         Co57   1.961       .  S
O38          C46   1.307       .  A
O38         Co58   2.055       .  S
O39          C47   1.259       .  A
O39         Co59   1.974       .  S
O40          C46   1.297       .  A
O40         Co57   1.980       .  S
O41          C47   1.269       .  A
O41         Co56   2.011       .  S
O42          C45   1.285       .  A
O42         Co59   2.019       .  S
O43          C44   1.258       .  A
O43         Co58   1.985       .  S
C44        C1372   1.459       .  S
C45        C1382   1.472       .  S
C46        C1401   1.472       .  S
C47        C1403   1.447       .  S
O48          C61   1.265       .  A
O48         Co56   1.962       .  S
O49          C62   1.251       .  A
O49         Co57   1.998       .  S
O50          C63   1.305       .  A
O50         Co58   2.106       .  S
O51          C64   1.260   1_545  A
O51         Co59   1.967       .  S
O52          C64   1.283       .  A
O52         Co57   2.049       .  S
O53          C63   1.270   1_545  A
O53         Co56   1.889       .  S
O54          C61   1.280       .  A
O54         Co59   1.999       .  S
O55          C62   1.247       .  A
O55         Co58   1.958       .  S
Co56         O60   1.903       .  S
Co57         O60   1.976   1_565  S
Co58         O60   2.046   1_565  S
Co59         O60   1.953       .  S
C61        C1362   1.454       .  S
C62        C1392   1.463       .  S
C63        C1461   1.447       .  S
C64        C1405   1.452       .  S
C65          C66   1.420       .  A
C65          C70   1.415       .  A
C65        C1354   1.472       .  S
C66          C67   1.432   1_455  A
C66        C1358   1.462       .  S
C67          C68   1.420   1_545  A
C67        C1406   1.468   1_545  S
C68          C69   1.414       .  A
C68        C1352   1.464       .  S
C69          C70   1.420   1_665  A
C69        C1360   1.461       .  S
C70        C1355   1.455       .  S
O71          C79   1.277   1_455  A
O71         Co91   1.989       .  S
O72          C80   1.250   1_655  A
O72         Co92   1.927       .  S
O73          C81   1.271       .  A
O73         Co93   1.920       .  S
O74          C82   1.277       .  A
O74         Co94   2.027       .  S
O75          C81   1.283       .  A
O75         Co92   2.038       .  S
O76          C82   1.261       .  A
O76         Co91   1.963       .  S
O77          C80   1.265       .  A
O77         Co94   2.027       .  S
O78          C79   1.271       .  A
O78         Co93   1.983       .  S
C79        C1306   1.463       .  S
C80        C1316   1.464       .  S
C81        C1350   1.430       .  S
C82        C1345   1.437       .  S
O83          C96   1.281       .  A
O83         Co91   2.005       .  S
O84          C97   1.255       .  A
O84         Co92   1.954       .  S
O85          C98   1.266       .  A
O85         Co93   2.008       .  S
O86          C99   1.284       .  A
O86         Co94   1.956       .  S
O87          C99   1.297   1_655  A
O87         Co92   2.087       .  S
O88          C98   1.258   1_455  A
O88         Co91   1.974       .  S
O89          C96   1.277       .  A
O89         Co94   1.969       .  S
O90          C97   1.266       .  A
O90         Co93   1.981       .  S
Co91         O95   1.969       .  S
Co92         O95   2.059   1_655  S
Co93         O95   1.936   1_655  S
Co94         O95   1.946       .  S
C96        C1326   1.471       .  S
C97        C1336   1.455       .  S
C98        C1359   1.445       .  S
C99        C1347   1.478       .  S
O100        C108   1.277   1_554  A
O100       Co120   1.976       .  S
O101        C109   1.264   1_556  A
O101       Co121   1.986       .  S
O102        C110   1.258       .  A
O102       Co122   1.965       .  S
O103        C111   1.299       .  A
O103       Co123   2.093       .  S
O104        C110   1.269       .  A
O104       Co121   2.006       .  S
O105        C111   1.277       .  A
O105       Co120   1.925       .  S
O106        C109   1.254       .  A
O106       Co123   1.959       .  S
O107        C108   1.278       .  A
O107       Co122   1.998       .  S
C108       C1260   1.472       .  S
C109       C1270   1.461       .  S
C110       C1299   1.441       .  S
C111       C1301   1.458       .  S
O112        C125   1.267       .  A
O112       Co120   2.044       .  S
O113        C126   1.271       .  A
O113       Co121   1.988       .  S
O114        C127   1.261   1_556  A
O114       Co122   1.965       .  S
O115        C128   1.285   1_554  A
O115       Co123   2.042       .  S
O116        C128   1.277       .  A
O116       Co121   1.936       .  S
O117        C127   1.270       .  A
O117       Co120   2.008       .  S
O118        C125   1.247       .  A
O118       Co123   1.922       .  S
O119        C126   1.272       .  A
O119       Co122   1.971       .  S
Co120       O124   1.944   1_554  S
Co121       O124   1.943       .  S
Co122       O124   1.973       .  S
Co123       O124   2.058   1_554  S
C125       C1280   1.467       .  S
C126       C1290   1.463       .  S
C127       C1460   1.425       .  S
C128       C1304   1.445   1_556  S
O129        C137   1.266       .  A
O129       Co149   1.960       .  S
O130        C138   1.253       .  A
O130       Co150   2.019       .  S
O131        C139   1.264       .  A
O131       Co151   1.975       .  S
O132        C140   1.305       .  A
O132       Co152   2.106       .  S
O133        C139   1.277       .  A
O133       Co150   2.027       .  S
O134        C140   1.274       .  A
O134       Co149   1.890       .  S
O135        C138   1.242   1_455  A
O135       Co152   1.958       .  S
O136        C137   1.282   1_655  A
O136       Co151   1.999       .  S
C137       C1395   1.453       .  S
C138       C1244   1.472       .  S
C139       C1255   1.443       .  S
C140       C1257   1.449       .  S
O141        C154   1.260       .  A
O141       Co149   1.968       .  S
O142        C155   1.275       .  A
O142       Co150   1.971       .  S
O143        C156   1.260   1_655  A
O143       Co151   1.974       .  S
O144        C157   1.303   1_455  A
O144       Co152   2.021       .  S
O145        C157   1.294       .  A
O145       Co150   1.971       .  S
O146        C156   1.275       .  A
O146       Co149   2.024       .  S
O147        C154   1.255       .  A
O147       Co152   1.973       .  S
O148        C155   1.281       .  A
O148       Co151   2.011       .  S
Co149       O153   1.898   1_455  S
Co150       O153   1.994       .  S
Co151       O153   1.955       .  S
Co152       O153   2.032   1_455  S
C154       C1263   1.455       .  S
C155       C1234   1.474       .  S
C156       C1458   1.454       .  S
C157       C1254   1.451       .  S
C158        C159   1.428       .  A
C158        C163   1.434       .  A
C158       C1230   1.466       .  S
C159        C160   1.419       .  A
C159       C1258   1.467       .  S
C160        C161   1.418       .  A
C160       C1302   1.474       .  S
C161        C162   1.424       .  A
C161       C1227   1.461       .  S
C162        C163   1.429       .  A
C162       C1226   1.467       .  S
C163       C1232   1.485       .  S
O164        C172   1.247       .  A
O164       Co184   2.003       .  S
O165        C173   1.266       .  A
O165       Co185   1.948       .  S
O166        C174   1.301       .  A
O166       Co186   2.090       .  S
O167        C175   1.269       .  A
O167       Co187   2.009       .  S
O168        C174   1.278       .  A
O168       Co185   1.897       .  S
O169        C175   1.274       .  A
O169       Co184   2.045       .  S
O170        C173   1.289       .  A
O170       Co187   2.013       .  S
O171        C172   1.242       .  A
O171       Co186   1.961       .  S
C172       C1329   1.463       .  S
C173       C1210   1.450       .  S
C174       C1224   1.444       .  S
C175       C1231   1.474       .  S
O176        C189   1.264       .  A
O176       Co184   1.964       .  S
O177        C190   1.259       .  A
O177       Co185   1.971       .  S
O178        C191   1.303       .  A
O178       Co186   2.030       .  S
O179        C192   1.258       .  A
O179       Co187   1.972       .  S
O180        C192   1.277       .  A
O180       Co185   2.036       .  S
O181        C191   1.286       .  A
O181       Co184   1.966       .  S
O182        C189   1.281       .  A
O182       Co187   2.024       .  S
O183        C190   1.259       .  A
O183       Co186   1.987       .  S
Co184       O188   1.968       .  S
Co185       O188   1.901       .  S
Co186       O188   2.051       .  S
Co187       O188   1.970       .  S
C189       C1190   1.445       .  S
C190       C1200   1.466       .  S
C191       C1221   1.453       .  S
C192       C1220   1.461       .  S
C193        C194   1.404       .  A
C193        C198   1.405       .  A
C193       C1186   1.445       .  S
C194        C195   1.415       .  A
C194       C1223   1.462       .  S
C195        C196   1.430       .  A
C195       C1346   1.451       .  S
C196        C197   1.420       .  A
C196       C1183   1.464       .  S
C197        C198   1.408       .  A
C197       C1300   1.460       .  S
C198       C1187   1.448       .  S
O199        C207   1.266       .  A
O199       Co219   1.961       .  S
O200        C208   1.239       .  A
O200       Co220   1.953       .  S
O201        C209   1.271       .  A
O201       Co221   1.994       .  S
O202        C210   1.271       .  A
O202       Co222   1.997       .  S
O203        C209   1.271       .  A
O203       Co220   1.982       .  S
O204        C210   1.263       .  A
O204       Co219   1.964       .  S
O205        C208   1.250       .  A
O205       Co222   2.018       .  S
O206        C207   1.264       .  A
O206       Co221   1.995       .  S
C207       C1273   1.462       .  S
C208       C1161   1.465       .  S
C209       C1177   1.438       .  S
C210       C1181   1.415       .  S
O211        C224   1.270       .  A
O211       Co219   1.992       .  S
O212        C225   1.255       .  A
O212       Co220   1.963       .  S
O213        C226   1.274       .  A
O213       Co221   1.880       .  S
O214        C227   1.302       .  A
O214       Co222   2.007       .  S
O215        C227   1.300       .  A
O215       Co220   1.989       .  S
O216        C226   1.297       .  A
O216       Co219   2.087       .  S
O217        C224   1.271       .  A
O217       Co222   1.976       .  S
O218        C225   1.264       .  A
O218       Co221   1.964       .  S
Co219       O223   2.027       .  S
Co220       O223   1.960       .  S
Co221       O223   1.915       .  S
Co222       O223   2.047       .  S
C224       C1148   1.471       .  S
C225       C1168   1.455       .  S
C226       C1188   1.429       .  S
C227       C1179   1.455       .  S
C228        C229   1.421       .  A
C228        C233   1.416       .  A
C228       C1140   1.469       .  S
C229        C230   1.426       .  A
C229       C1452   1.452       .  S
C230        C231   1.414       .  A
C230       C1145   1.471       .  S
C231        C232   1.416       .  A
C231       C1144   1.458       .  S
C232        C233   1.413       .  A
C232       C1142   1.453       .  S
C233       C1138   1.460       .  S
O234        C242   1.281       .  A
O234       Co254   1.994       .  S
O235        C243   1.250       .  A
O235       Co255   1.928       .  S
O236        C244   1.277       .  A
O236       Co256   1.937       .  S
O237        C245   1.272       .  A
O237       Co257   2.020       .  S
O238        C244   1.281       .  A
O238       Co255   2.028       .  S
O239        C245   1.259       .  A
O239       Co254   1.965       .  S
O240        C243   1.265       .  A
O240       Co257   2.032       .  S
O241        C242   1.267       .  A
O241       Co256   1.970       .  S
C242       C1431   1.456       .  S
C243       C1319   1.466       .  S
C244       C1132   1.436       .  S
C245       C1133   1.434       .  S
O246        C259   1.288       .  A
O246       Co254   2.028       .  S
O247        C260   1.259       .  A
O247       Co255   1.965       .  S
O248        C261   1.272       .  A
O248       Co256   2.021       .  S
O249        C262   1.279       .  A
O249       Co257   1.933       .  S
O250        C262   1.295       .  A
O250       Co255   2.079       .  S
O251        C261   1.257       .  A
O251       Co254   1.971       .  S
O252        C259   1.275       .  A
O252       Co257   1.953       .  S
O253        C260   1.265       .  A
O253       Co256   1.977       .  S
Co254       O258   1.961       .  S
Co255       O258   2.049       .  S
Co256       O258   1.933       .  S
Co257       O258   1.936       .  S
C259       C1122   1.472       .  S
C260       C1112   1.460       .  S
C261       C1146   1.455       .  S
C262       C1136   1.456       .  S
O263        C271   1.263       .  A
O263       Co283   1.968       .  S
O264        C272   1.248       .  A
O264       Co284   2.011       .  S
O265        C273   1.257       .  A
O265       Co285   1.953       .  S
O266        C274   1.303       .  A
O266       Co286   2.100       .  S
O267        C273   1.281       .  A
O267       Co284   2.036       .  S
O268        C274   1.279       .  A
O268       Co283   1.896       .  S
O269        C272   1.237   1_455  A
O269       Co286   1.956       .  S
O270        C271   1.276   1_655  A
O270       Co285   1.987       .  S
C271       C1365   1.455       .  S
C272       C1096   1.463       .  S
C273       C1108   1.432       .  S
C274       C1109   1.453       .  S
O275        C288   1.263       .  A
O275       Co283   1.972       .  S
O276        C289   1.278       .  A
O276       Co284   1.967       .  S
O277        C290   1.258   1_655  A
O277       Co285   1.953       .  S
O278        C291   1.307   1_455  A
O278       Co286   2.033       .  S
O279        C291   1.299       .  A
O279       Co284   1.991       .  S
O280        C290   1.280       .  A
O280       Co283   2.035       .  S
O281        C288   1.257       .  A
O281       Co286   1.973       .  S
O282        C289   1.283       .  A
O282       Co285   2.013       .  S
Co283       O287   1.895   1_455  S
Co284       O287   2.011       .  S
Co285       O287   1.949       .  S
Co286       O287   2.014   1_455  S
C288       C1086   1.458       .  S
C289       C1076   1.473       .  S
C290       C1357   1.446       .  S
C291       C1105   1.470       .  S
C292        C293   1.421       .  A
C292        C297   1.416       .  A
C292       C1071   1.447       .  S
C293        C294   1.417       .  A
C293       C1067   1.476       .  S
C294        C295   1.432       .  A
C294       C1110   1.469       .  S
C295        C296   1.424       .  A
C295       C1065   1.453       .  S
C296        C297   1.414       .  A
C296       C1073   1.476       .  S
C297       C1069   1.464       .  S
O298        C306   1.255       .  A
O298       Co318   1.953       .  S
O299        C307   1.279       .  A
O299       Co319   2.001       .  S
O300        C308   1.265       .  A
O300       Co320   2.003       .  S
O301        C309   1.280       .  A
O301       Co321   1.933       .  S
O302        C308   1.259       .  A
O302       Co319   1.979       .  S
O303        C309   1.297       .  A
O303       Co318   2.088       .  S
O304        C307   1.275       .  A
O304       Co321   1.967   1_556  S
O305        C306   1.264   1_556  A
O305       Co320   1.981       .  S
C306       C1411   1.457       .  S
C307       C1050   1.469       .  S
C308       C1063   1.449       .  S
C309       C1074   1.460       .  S
O310        C323   1.249       .  A
O310       Co318   1.919       .  S
O311        C324   1.278       .  A
O311       Co319   1.987       .  S
O312        C325   1.272       .  A
O312       Co320   1.924       .  S
O313        C326   1.277   1_554  A
O313       Co321   2.027       .  S
O314        C326   1.264       .  A
O314       Co319   1.974       .  S
O315        C325   1.285   1_554  A
O315       Co318   2.045       .  S
O316        C323   1.268       .  A
O316       Co321   2.041       .  S
O317        C324   1.266       .  A
O317       Co320   1.974       .  S
Co318       O322   2.052   1_554  S
Co319       O322   1.975       .  S
Co320       O322   1.939       .  S
Co321       O322   1.936   1_554  S
C323       C1040   1.465       .  S
C324       C1030   1.457       .  S
C325       C1059   1.435       .  S
C326       C1061   1.443       .  S
C327        C328   1.425       .  A
C327        C332   1.424       .  A
C327       C1022   1.472       .  S
C328        C329   1.420       .  A
C328       C1024   1.459       .  S
C329        C330   1.412       .  A
C329       C1448   1.457       .  S
C330        C331   1.414       .  A
C330       C1064   1.469       .  S
C331        C332   1.422       .  A
C331       C1026   1.452       .  S
C332       C1027   1.469       .  S
O333        C341   1.246       .  A
O333       Co353   1.940       .  S
O334        C342   1.264       .  A
O334       Co354   1.959       .  S
O335        C343   1.293       .  A
O335       Co355   2.073       .  S
O336        C344   1.282       .  A
O336       Co356   1.952       .  S
O337        C343   1.272       .  A
O337       Co354   1.888       .  S
O338        C344   1.281       .  A
O338       Co353   2.031       .  S
O339        C342   1.266       .  A
O339       Co356   2.000       .  S
O340        C341   1.280       .  A
O340       Co355   2.079       .  S
C341        C978   1.477       .  S
C342        C998   1.466       .  S
C343       C1019   1.430       .  S
C344       C1018   1.446       .  S
O345        C358   1.259       .  A
O345       Co353   1.992       .  S
O346        C359   1.262       .  A
O346       Co354   1.981       .  S
O347        C360   1.264       .  A
O347       Co355   2.006       .  S
O348        C361   1.272       .  A
O348       Co356   1.996       .  S
O349        C361   1.274       .  A
O349       Co354   2.013       .  S
O350        C360   1.254       .  A
O350       Co353   1.993       .  S
O351        C358   1.258       .  A
O351       Co356   1.955       .  S
O352        C359   1.269       .  A
O352       Co355   1.968       .  S
Co353       O357   2.005       .  S
Co354       O357   1.913       .  S
Co355       O357   2.105       .  S
Co356       O357   1.948       .  S
C358       C1008   1.459       .  S
C359        C988   1.459       .  S
C360       C1141   1.438       .  S
C361       C1028   1.455       .  S
O362        C370   1.262       .  A
O362       Co382   2.024       .  S
O363        C371   1.259       .  A
O363       Co383   1.963       .  S
O364        C372   1.298       .  A
O364       Co384   2.018       .  S
O365        C373   1.263       .  A
O365       Co385   1.971       .  S
O366        C372   1.288       .  A
O366       Co383   1.956       .  S
O367        C373   1.273       .  A
O367       Co382   2.013       .  S
O368        C371   1.274   1_545  A
O368       Co385   1.990       .  S
O369        C370   1.251   1_565  A
O369       Co384   1.956       .  S
C370       C1283   1.474       .  S
C371        C964   1.454       .  S
C372       C1228   1.443       .  S
C373       C1072   1.431       .  S
O374        C387   1.281       .  A
O374       Co382   1.974       .  S
O375        C388   1.249       .  A
O375       Co383   1.969       .  S
O376        C389   1.312   1_565  A
O376       Co384   2.121       .  S
O377        C390   1.261   1_545  A
O377       Co385   1.970       .  S
O378        C390   1.273       .  A
O378       Co383   2.016       .  S
O379        C389   1.281       .  A
O379       Co382   1.892       .  S
O380        C387   1.282       .  A
O380       Co385   2.007       .  S
O381        C388   1.246       .  A
O381       Co384   1.980       .  S
Co382       O386   1.896       .  S
Co383       O386   1.973   1_565  S
Co384       O386   2.052   1_565  S
Co385       O386   1.961       .  S
C387        C954   1.472       .  S
C388        C944   1.461       .  S
C389        C974   1.447       .  S
C390        C975   1.442       .  S
C391        C392   1.414       .  A
C391        C396   1.417   1_545  A
C391       C1020   1.448       .  S
C392        C393   1.415   1_545  A
C392        C937   1.460       .  S
C393        C394   1.413       .  A
C393        C976   1.461       .  S
C394        C395   1.422       .  A
C394        C941   1.462       .  S
C395        C396   1.423       .  A
C395        C935   1.450       .  S
C396        C939   1.478       .  S
O397        C405   1.255       .  A
O397       Co417   1.946       .  S
O398        C406   1.260       .  A
O398       Co418   2.016       .  S
O399        C407   1.264       .  A
O399       Co419   1.973       .  S
O400        C408   1.296       .  A
O400       Co420   2.001       .  S
O401        C407   1.275       .  A
O401       Co418   2.017       .  S
O402        C408   1.292       .  A
O402       Co417   1.969       .  S
O403        C406   1.254       .  A
O403       Co420   1.967       .  S
O404        C405   1.277       .  A
O404       Co419   2.001       .  S
C405       C1213   1.447       .  S
C406        C922   1.476       .  S
C407        C932   1.435       .  S
C408        C942   1.442       .  S
O409        C422   1.246       .  A
O409       Co417   1.961       .  S
O410        C423   1.279       .  A
O410       Co418   1.963       .  S
O411        C424   1.262       .  A
O411       Co419   1.975       .  S
O412        C425   1.310       .  A
O412       Co420   2.113       .  S
O413        C425   1.283       .  A
O413       Co418   1.890       .  S
O414        C424   1.275       .  A
O414       Co417   2.023       .  S
O415        C422   1.248       .  A
O415       Co420   1.988       .  S
O416        C423   1.286       .  A
O416       Co419   2.022       .  S
Co417       O421   1.970       .  S
Co418       O421   1.884       .  S
Co419       O421   1.957       .  S
Co420       O421   2.048       .  S
C422        C947   1.462       .  S
C423        C912   1.471       .  S
C424       C1225   1.450       .  S
C425        C934   1.440       .  S
O426        C434   1.255       .  A
O426       Co446   1.963       .  S
O427        C435   1.280       .  A
O427       Co447   2.006       .  S
O428        C436   1.266       .  A
O428       Co448   2.005       .  S
O429        C437   1.279       .  A
O429       Co449   1.940       .  S
O430        C436   1.255   1_545  A
O430       Co447   1.962       .  S
O431        C437   1.295   1_565  A
O431       Co446   2.083       .  S
O432        C435   1.274       .  A
O432       Co449   1.961       .  S
O433        C434   1.263       .  A
O433       Co448   1.981       .  S
C434       C1151   1.459       .  S
C435        C991   1.469       .  S
C436        C910   1.440       .  S
C437        C940   1.464       .  S
O438        C451   1.252   1_565  A
O438       Co446   1.925       .  S
O439        C452   1.277   1_545  A
O439       Co447   1.983       .  S
O440        C453   1.274       .  A
O440       Co448   1.923       .  S
O441        C454   1.277       .  A
O441       Co449   2.034       .  S
O442        C454   1.258       .  A
O442       Co447   1.961       .  S
O443        C453   1.284       .  A
O443       Co446   2.037       .  S
O444        C451   1.267       .  A
O444       Co449   2.031       .  S
O445        C452   1.272       .  A
O445       Co448   1.982       .  S
Co446       O450   2.062   1_565  S
Co447       O450   1.972       .  S
Co448       O450   1.936   1_565  S
Co449       O450   1.942       .  S
C451        C898   1.464       .  S
C452        C888   1.462       .  S
C453        C907   1.431       .  S
C454       C1137   1.441       .  S
C455        C456   1.422   1_545  A
C455        C460   1.427       .  A
C455        C973   1.461       .  S
C456        C457   1.410   1_554  A
C456       C1303   1.461       .  S
C457        C458   1.398       .  A
C457       C1182   1.438       .  S
C458        C459   1.408   1_565  A
C458        C909   1.464       .  S
C459        C460   1.422   1_556  A
C459        C884   1.443       .  S
C460        C885   1.470       .  S
O461        C469   1.267       .  A
O461       Co481   1.957       .  S
O462        C470   1.254       .  A
O462       Co482   2.011       .  S
O463        C471   1.263       .  A
O463       Co483   1.976       .  S
O464        C472   1.308       .  A
O464       Co484   2.121       .  S
O465        C471   1.282       .  A
O465       Co482   2.045       .  S
O466        C472   1.269       .  A
O466       Co481   1.886       .  S
O467        C470   1.246       .  A
O467       Co484   1.957       .  S
O468        C469   1.283       .  A
O468       Co483   2.004       .  S
C469       C1053   1.451       .  S
C470        C870   1.469       .  S
C471        C879   1.457       .  S
C472        C886   1.454       .  S
O473        C486   1.261       .  A
O473       Co481   1.969       .  S
O474        C487   1.276       .  A
O474       Co482   1.968       .  S
O475        C488   1.259       .  A
O475       Co483   1.976       .  S
O476        C489   1.305       .  A
O476       Co484   2.035       .  S
O477        C489   1.296       .  A
O477       Co482   1.982       .  S
O478        C488   1.268       .  A
O478       Co481   2.010       .  S
O479        C486   1.256       .  A
O479       Co484   1.975       .  S
O480        C487   1.283       .  A
O480       Co483   2.018       .  S
Co481       O485   1.901       .  S
Co482       O485   1.986       .  S
Co483       O485   1.955       .  S
Co484       O485   2.042       .  S
C486        C957   1.457       .  S
C487        C860   1.475       .  S
C488       C1070   1.445       .  S
C489        C881   1.466       .  S
O490        C498   1.251       .  A
O490       Co510   1.971       .  S
O491        C499   1.278       .  A
O491       Co511   1.965       .  S
O492        C500   1.313       .  A
O492       Co512   2.126       .  S
O493        C501   1.262       .  A
O493       Co513   1.976       .  S
O494        C500   1.280       .  A
O494       Co511   1.898       .  S
O495        C501   1.279       .  A
O495       Co510   2.037       .  S
O496        C499   1.283       .  A
O496       Co513   2.014       .  S
O497        C498   1.246       .  A
O497       Co512   1.977       .  S
C498       C1089   1.461       .  S
C499       C1001   1.472       .  S
C500       C1021   1.458       .  S
C501       C1068   1.457       .  S
O502        C515   1.259       .  A
O502       Co510   1.961       .  S
O503        C516   1.260       .  A
O503       Co511   2.015       .  S
O504        C517   1.298       .  A
O504       Co512   2.019       .  S
O505        C518   1.263       .  A
O505       Co513   1.976       .  S
O506        C518   1.276       .  A
O506       Co511   2.024       .  S
O507        C517   1.292       .  A
O507       Co510   1.972       .  S
O508        C515   1.275       .  A
O508       Co513   1.996       .  S
O509        C516   1.252       .  A
O509       Co512   1.954       .  S
Co510       O514   1.982       .  S
Co511       O514   1.903       .  S
Co512       O514   2.053       .  S
Co513       O514   1.965       .  S
C515        C967   1.454       .  S
C516        C850   1.470       .  S
C517       C1353   1.452       .  S
C518        C938   1.442       .  S
C519        C520   1.428       .  A
C519        C524   1.425       .  A
C519       C1402   1.485       .  S
C520        C521   1.424       .  A
C520       C1256   1.458       .  S
C521        C522   1.417       .  A
C521        C845   1.463       .  S
C522        C523   1.415       .  A
C522        C847   1.472       .  S
C523        C524   1.421       .  A
C523        C933   1.457       .  S
C524        C843   1.459       .  S
O525        C533   1.258       .  A
O525       Co545   1.950       .  S
O526        C534   1.263       .  A
O526       Co546   1.956       .  S
O527        C535   1.276       .  A
O527       Co547   1.884       .  S
O528        C536   1.295       .  A
O528       Co548   1.986       .  S
O529        C535   1.295       .  A
O529       Co546   2.068       .  S
O530        C536   1.297       .  A
O530       Co545   2.005       .  S
O531        C534   1.265       .  A
O531       Co548   1.998       .  S
O532        C533   1.267       .  A
O532       Co547   2.021       .  S
C533        C915   1.471       .  S
C534        C863   1.463       .  S
C535        C837   1.421       .  S
C536        C839   1.455       .  S
O537        C550   1.242       .  A
O537       Co545   1.986       .  S
O538        C551   1.263       .  A
O538       Co546   1.987       .  S
O539        C552   1.269       .  A
O539       Co547   1.987       .  S
O540        C553   1.267       .  A
O540       Co548   1.979       .  S
O541        C553   1.262       .  A
O541       Co546   1.975       .  S
O542        C552   1.279       .  A
O542       Co545   2.028       .  S
O543        C550   1.247       .  A
O543       Co548   1.970       .  S
O544        C551   1.264       .  A
O544       Co547   1.961       .  S
Co545       O549   2.043       .  S
Co546       O549   2.083       .  S
Co547       O549   1.893       .  S
Co548       O549   2.007       .  S
C550        C818   1.458       .  S
C551        C828   1.461       .  S
C552        C848   1.455       .  S
C553        C841   1.434       .  S
C554        C555   1.412       .  A
C554        C559   1.405       .  A
C554       C1107   1.453       .  S
C555        C556   1.417       .  A
C555       C1404   1.464       .  S
C556        C557   1.424       .  A
C556        C814   1.447       .  S
C557        C558   1.424       .  A
C557        C882   1.479       .  S
C558        C559   1.415       .  A
C558        C842   1.451       .  S
C559        C815   1.457       .  S
C560        C561   1.418       .  A
C560        C565   1.419       .  A
C560       C1349   1.446       .  S
C561        C562   1.419       .  A
C561        C809   1.474       .  S
C562        C563   1.417       .  A
C562        C908   1.447       .  S
C563        C564   1.417       .  A
C563       C1180   1.472       .  S
C564        C565   1.413       .  A
C564        C811   1.447       .  S
C565       C1135   1.472       .  S
O566        C574   1.246       .  A
O566       Co586   1.981       .  S
O567        C575   1.283       .  A
O567       Co587   2.012       .  S
O568        C576   1.276       .  A
O568       Co588   2.021       .  S
O569        C577   1.278       .  A
O569       Co589   1.886       .  S
O570        C576   1.262       .  A
O570       Co587   1.975       .  S
O571        C577   1.311       .  A
O571       Co586   2.118       .  S
O572        C575   1.279   1_545  A
O572       Co589   1.969       .  S
O573        C574   1.251   1_565  A
O573       Co588   1.983       .  S
C574       C1293   1.468       .  S
C575        C853   1.473       .  S
C576       C1184   1.449       .  S
C577       C1023   1.443       .  S
O578        C591   1.255       .  A
O578       Co586   1.958       .  S
O579        C592   1.275       .  A
O579       Co587   1.991       .  S
O580        C593   1.291   1_565  A
O580       Co588   1.970       .  S
O581        C594   1.273       .  A
O581       Co589   2.017       .  S
O582        C594   1.263   1_565  A
O582       Co587   1.977       .  S
O583        C593   1.298       .  A
O583       Co586   2.018       .  S
O584        C591   1.264       .  A
O584       Co589   2.026       .  S
O585        C592   1.265       .  A
O585       Co588   1.973       .  S
Co586       O590   2.054   1_545  S
Co587       O590   1.963       .  S
Co588       O590   1.977       .  S
Co589       O590   1.892   1_545  S
C591       C1421   1.478       .  S
C592       C1309   1.460       .  S
C593       C1456   1.452       .  S
C594       C1356   1.440       .  S
O595        C603   1.242       .  A
O595       Co615   1.991       .  S
O596        C604   1.260       .  A
O596       Co616   1.970       .  S
O597        C605   1.273       .  A
O597       Co617   1.992       .  S
O598        C606   1.258       .  A
O598       Co618   1.980       .  S
O599        C605   1.274       .  A
O599       Co616   2.007       .  S
O600        C606   1.263       .  A
O600       Co615   2.016       .  S
O601        C604   1.271       .  A
O601       Co618   1.976       .  S
O602        C603   1.243       .  A
O602       Co617   1.969       .  S
C603       C1115   1.460       .  S
C604        C821   1.458       .  S
C605        C807   1.451       .  S
C606        C805   1.441       .  S
O607        C620   1.257       .  A
O607       Co615   1.957       .  S
O608        C621   1.262       .  A
O608       Co616   1.964       .  S
O609        C622   1.300       .  A
O609       Co617   1.999       .  S
O610        C623   1.290       .  A
O610       Co618   2.064       .  S
O611        C623   1.275       .  A
O611       Co616   1.901       .  S
O612        C622   1.290       .  A
O612       Co615   1.970       .  S
O613        C620   1.278       .  A
O613       Co618   2.050       .  S
O614        C621   1.261       .  A
O614       Co617   1.988       .  S
Co615       O619   2.024       .  S
Co616       O619   1.937       .  S
Co617       O619   2.007       .  S
Co618       O619   2.068       .  S
C620        C981   1.471       .  S
C621       C1079   1.463       .  S
C622       C1143   1.441       .  S
C623        C816   1.435       .  S
C624        C625   1.422       .  A
C624        C629   1.433       .  A
C624       C1222   1.469       .  S
C625        C626   1.430   1_455  A
C625       C1348   1.491       .  S
C626        C627   1.425       .  A
C626       C1131   1.452       .  S
C627        C628   1.417   1_655  A
C627        C808   1.469       .  S
C628        C629   1.426       .  A
C628       C1106   1.485       .  S
C629        C803   1.459       .  S
O630        C638   1.243   1_554  A
O630       Co650   1.951       .  S
O631        C639   1.284   1_556  A
O631       Co651   2.000       .  S
O632        C640   1.271       .  A
O632       Co652   2.015       .  S
O633        C641   1.272       .  A
O633       Co653   1.885       .  S
O634        C640   1.257       .  A
O634       Co651   1.962       .  S
O635        C641   1.304       .  A
O635       Co650   2.106       .  S
O636        C639   1.271       .  A
O636       Co653   1.970       .  S
O637        C638   1.252       .  A
O637       Co652   2.017       .  S
C638       C1237   1.464       .  S
C639       C1158   1.457       .  S
C640        C812   1.429       .  S
C641        C846   1.446       .  S
O642        C655   1.258       .  A
O642       Co650   1.973       .  S
O643        C656   1.288       .  A
O643       Co651   2.030       .  S
O644        C657   1.293       .  A
O644       Co652   1.968       .  S
O645        C658   1.269       .  A
O645       Co653   2.004       .  S
O646        C658   1.257   1_556  A
O646       Co651   1.959       .  S
O647        C657   1.301   1_554  A
O647       Co650   2.017       .  S
O648        C655   1.265       .  A
O648       Co653   1.980       .  S
O649        C656   1.276       .  A
O649       Co652   1.959       .  S
Co650       O654   2.025   1_554  S
Co651       O654   1.939       .  S
Co652       O654   1.989       .  S
Co653       O654   1.881   1_554  S
C655        C831   1.459       .  S
C656       C1125   1.472       .  S
C657        C799   1.447       .  S
C658        C801   1.434       .  S
C659        C660   1.418       .  A
C659        C664   1.432       .  A
C659        C797   1.470       .  S
C660        C661   1.409   1_556  A
C660       C1178   1.456       .  S
C661        C662   1.405       .  A
C661        C802   1.456       .  S
C662        C663   1.410       .  A
C662        C838   1.442       .  S
C663        C664   1.424   1_554  A
C663        C880   1.473       .  S
C664       C1062   1.456       .  S
O665        C673   1.254       .  A
O665       Co685   2.019       .  S
O666        C674   1.270       .  A
O666       Co686   1.983       .  S
O667        C675   1.307       .  A
O667       Co687   2.111       .  S
O668        C676   1.260       .  A
O668       Co688   1.967       .  S
O669        C675   1.274       .  A
O669       Co686   1.893       .  S
O670        C676   1.271       .  A
O670       Co685   2.016       .  S
O671        C674   1.274   1_554  A
O671       Co688   1.977       .  S
O672        C673   1.242   1_556  A
O672       Co687   1.949       .  S
C673       C1441   1.464       .  S
C674        C873   1.460       .  S
C675       C1139   1.453       .  S
C676        C813   1.431       .  S
O677        C690   1.280       .  A
O677       Co685   1.973       .  S
O678        C691   1.263       .  A
O678       Co686   1.987       .  S
O679        C692   1.306   1_556  A
O679       Co687   2.041       .  S
O680        C693   1.258   1_554  A
O680       Co688   1.951       .  S
O681        C693   1.270       .  A
O681       Co686   1.997       .  S
O682        C692   1.288       .  A
O682       Co685   1.947       .  S
O683        C690   1.283       .  A
O683       Co688   2.011       .  S
O684        C691   1.254       .  A
O684       Co687   1.970       .  S
Co685       O689   1.977       .  S
Co686       O689   1.904   1_556  S
Co687       O689   2.030   1_556  S
Co688       O689   1.951       .  S
C690       C1375   1.475       .  S
C691        C891   1.464       .  S
C692       C1453   1.445       .  S
C693        C883   1.424       .  S
O694        C702   1.265       .  A
O694       Co714   1.990       .  S
O695        C703   1.270       .  A
O695       Co715   2.003       .  S
O696        C704   1.260       .  A
O696       Co716   1.886       .  S
O697        C705   1.264       .  A
O697       Co717   1.890       .  S
O698        C704   1.297       .  A
O698       Co715   2.096       .  S
O699        C705   1.292       .  A
O699       Co714   2.077       .  S
O700        C703   1.249       .  A
O700       Co717   1.967       .  S
O701        C702   1.260       .  A
O701       Co716   1.989       .  S
C702       C1203   1.465       .  S
C703       C1033   1.453       .  S
C704       C1025   1.436       .  S
C705       C1185   1.425       .  S
O706        C719   1.248       .  A
O706       Co714   1.947       .  S
O707        C720   1.253       .  A
O707       Co715   1.965       .  S
O708        C721   1.253       .  A
O708       Co716   2.006       .  S
O709        C722   1.264       .  A
O709       Co717   2.034       .  S
O710        C722   1.247       .  A
O710       Co715   1.967       .  S
O711        C721   1.243       .  A
O711       Co714   1.952       .  S
O712        C719   1.261       .  A
O712       Co717   1.978       .  S
O713        C720   1.260       .  A
O713       Co716   1.972       .  S
Co714       O718   2.143       .  S
Co715       O718   2.151       .  S
Co716       O718   1.949       .  S
Co717       O718   1.941       .  S
C719       C1171   1.453       .  S
C720       C1011   1.457       .  S
C721        C795   1.423       .  S
C722        C798   1.454       .  S
O723        C731   1.272       .  A
O723       Co743   1.985       .  S
O724        C732   1.252       .  A
O724       Co744   1.957       .  S
O725        C733   1.291       .  A
O725       Co745   1.966       .  S
O726        C734   1.275       .  A
O726       Co746   2.020       .  S
O727        C733   1.293       .  A
O727       Co744   1.990       .  S
O728        C734   1.267       .  A
O728       Co743   1.985       .  S
O729        C732   1.262       .  A
O729       Co746   2.017       .  S
O730        C731   1.261       .  A
O730       Co745   1.968       .  S
C731       C1385   1.456       .  S
C732        C901   1.472       .  S
C733        C936   1.434       .  S
C734       C1351   1.446       .  S
O735        C748   1.280       .  A
O735       Co743   1.995       .  S
O736        C749   1.247       .  A
O736       Co744   1.992       .  S
O737        C750   1.273       .  A
O737       Co745   2.009       .  S
O738        C751   1.284       .  A
O738       Co746   1.910       .  S
O739        C751   1.308       .  A
O739       Co744   2.112       .  S
O740        C750   1.262       .  A
O740       Co743   1.974       .  S
O741        C748   1.284       .  A
O741       Co746   1.974       .  S
O742        C749   1.246       .  A
O742       Co745   1.971       .  S
Co743       O747   1.964       .  S
Co744       O747   2.052       .  S
Co745       O747   1.986       .  S
Co746       O747   1.897       .  S
C748       C1339   1.465       .  S
C749        C925   1.467       .  S
C750        C844   1.441       .  S
C751        C810   1.457       .  S
O752        C760   1.250       .  A
O752       Co772   2.006       .  S
O753        C761   1.271       .  A
O753       Co773   1.954       .  S
O754        C762   1.305       .  A
O754       Co774   2.100       .  S
O755        C763   1.267       .  A
O755       Co775   1.986       .  S
O756        C762   1.273       .  A
O756       Co773   1.877       .  S
O757        C763   1.273       .  A
O757       Co772   2.028       .  S
O758        C761   1.289       .  A
O758       Co775   2.017       .  S
O759        C760   1.245       .  A
O759       Co774   1.965       .  S
C760       C1247   1.470       .  S
C761       C1099   1.452       .  S
C762        C794   1.436       .  S
C763        C804   1.448       .  S
O764        C777   1.261       .  A
O764       Co772   1.974       .  S
O765        C778   1.260       .  A
O765       Co773   1.980       .  S
O766        C779   1.303       .  A
O766       Co774   2.032       .  S
O767        C780   1.253       .  A
O767       Co775   1.962       .  S
O768        C780   1.268       .  A
O768       Co773   2.018       .  S
O769        C779   1.287       .  A
O769       Co772   1.966       .  S
O770        C777   1.274       .  A
O770       Co775   2.013       .  S
O771        C778   1.256       .  A
O771       Co774   1.976       .  S
Co772       O776   1.961       .  S
Co773       O776   1.895       .  S
Co774       O776   2.058       .  S
Co775       O776   1.972       .  S
C777       C1193   1.445       .  S
C778       C1043   1.462       .  S
C779       C1229   1.454       .  S
C780       C1066   1.437       .  S
C781        C782   1.414       .  A
C781        C786   1.411       .  A
C781        C796   1.444       .  S
C782        C783   1.426       .  A
C782       C1219   1.478       .  S
C783        C784   1.422       .  A
C783        C931   1.450       .  S
C784        C785   1.418       .  A
C784        C840   1.472       .  S
C785        C786   1.415       .  A
C785        C806   1.454       .  S
C786       C1017   1.464       .  S
C787        C788   1.421   1_655  A
C787        C792   1.421       .  A
C787       C1134   1.450       .  S
C788        C789   1.412       .  A
C788       C1449   1.477       .  S
C789        C790   1.420   1_556  A
C789       C1060   1.454       .  S
C790        C791   1.417       .  A
C790        C793   1.453       .  S
C791        C792   1.416   1_454  A
C791       C1253   1.467   1_455  S
C792        C800   1.463       .  S
C793        C794   1.208       .  T
C795        C796   1.200       .  T
C797        C798   1.219       .  T
C799        C800   1.213       .  T
C801        C802   1.207       .  T
C803        C804   1.213       .  T
C805        C806   1.210       .  T
C807        C808   1.216       .  T
C809        C810   1.220       .  T
C811        C812   1.204       .  T
C813        C814   1.205       .  T
C815        C816   1.208       .  T
C817        C818   1.401       .  A
C817        C822   1.394       .  A
C817        H823   1.084       .  S
C818        C819   1.403       .  A
C819        C820   1.394       .  A
C819        H824   1.084       .  S
C820        C821   1.401       .  A
C820        H825   1.084       .  S
C821        C822   1.403       .  A
C822        H826   1.084       .  S
C827        C828   1.400       .  A
C827        C832   1.395       .  A
C827        H833   1.083       .  S
C828        C829   1.406       .  A
C829        C830   1.395       .  A
C829        H834   1.084       .  S
C830        C831   1.399       .  A
C830        H835   1.084       .  S
C831        C832   1.404       .  A
C832        H836   1.084       .  S
C837        C838   1.199       .  T
C839        C840   1.219       .  T
C841        C842   1.207       .  T
C843        C844   1.211       .  T
C845        C846   1.213       .  T
C847        C848   1.218       .  T
C849        C850   1.407       .  A
C849        C854   1.395       .  A
C849        H855   1.083       .  S
C850        C851   1.402   1_545  A
C851        C852   1.395       .  A
C851        H856   1.084       .  S
C852        C853   1.407       .  A
C852        H857   1.083       .  S
C853        C854   1.402   1_565  A
C854        H858   1.083       .  S
C859        C860   1.405       .  A
C859        C864   1.397       .  A
C859        H865   1.084       .  S
C860        C861   1.406       .  A
C861        C862   1.395       .  A
C861        H866   1.083       .  S
C862        C863   1.403       .  A
C862        H867   1.083       .  S
C863        C864   1.403       .  A
C864        H868   1.084       .  S
C869        C870   1.402   1_556  A
C869        C874   1.397       .  A
C869        H875   1.084       .  S
C870        C871   1.406       .  A
C871        C872   1.397   1_554  A
C871        H876   1.084       .  S
C872        C873   1.401       .  A
C872        H877   1.084   1_556  S
C873        C874   1.404       .  A
C874        H878   1.084       .  S
C879        C880   1.221       .  T
C881        C882   1.225       .  T
C883        C884   1.202       .  T
C885        C886   1.218       .  T
C887        C888   1.401       .  A
C887        C892   1.398   1_565  A
C887        H893   1.083   1_565  S
C888        C889   1.407       .  A
C889        C890   1.398       .  A
C889        H894   1.084       .  S
C890        C891   1.398   1_565  A
C890        H895   1.083       .  S
C891        C892   1.406       .  A
C892        H896   1.084       .  S
C897        C898   1.404       .  A
C897        C902   1.396       .  A
C897        H903   1.084       .  S
C898        C899   1.402   1_545  A
C899        C900   1.394       .  A
C899        H904   1.084       .  S
C900        C901   1.407       .  A
C900        H905   1.083       .  S
C901        C902   1.404   1_565  A
C902        H906   1.083       .  S
C907        C908   1.205       .  T
C909        C910   1.211       .  T
C911        C912   1.406       .  A
C911        C916   1.395       .  A
C911        H917   1.083       .  S
C912        C913   1.402       .  A
C913        C914   1.395       .  A
C913        H918   1.083       .  S
C914        C915   1.406       .  A
C914        H919   1.083       .  S
C915        C916   1.403       .  A
C916        H920   1.083       .  S
C921        C922   1.401       .  A
C921        C926   1.398       .  A
C921        H927   1.083       .  S
C922        C923   1.412       .  A
C923        C924   1.396       .  A
C923        H928   1.083       .  S
C924        C925   1.398       .  A
C924        H929   1.083       .  S
C925        C926   1.408       .  A
C926        H930   1.084       .  S
C931        C932   1.207       .  T
C933        C934   1.209       .  T
C935        C936   1.207       .  T
C937        C938   1.211       .  T
C939        C940   1.224   1_565  T
C941        C942   1.212       .  T
C943        C944   1.409       .  A
C943        C948   1.395       .  A
C943        H949   1.084       .  S
C944        C945   1.396       .  A
C945        C946   1.394       .  A
C945        H950   1.083       .  S
C946        C947   1.409       .  A
C946        H951   1.084       .  S
C947        C948   1.397       .  A
C948        H952   1.083       .  S
C953        C954   1.401       .  A
C953        C958   1.396       .  A
C953        H959   1.083       .  S
C954        C955   1.410       .  A
C955        C956   1.393       .  A
C955        H960   1.083       .  S
C956        C957   1.397       .  A
C956        H961   1.084       .  S
C957        C958   1.405       .  A
C958        H962   1.084       .  S
C963        C964   1.404       .  A
C963        C968   1.395       .  A
C963        H969   1.084       .  S
C964        C965   1.399       .  A
C965        C966   1.394   1_565  A
C965        H970   1.084   1_565  S
C966        C967   1.403       .  A
C966        H971   1.084       .  S
C967        C968   1.399   1_545  A
C968        H972   1.084       .  S
C973        C974   1.214       .  T
C975        C976   1.212       .  T
C977        C978   1.414       .  A
C977        C982   1.428       .  A
C977        H983   1.082       .  S
C978        C979   1.392       .  A
C979        C980   1.351       .  A
C979        H984   1.078       .  S
C980        C981   1.384       .  A
C980        H985   1.069       .  S
C981        C982   1.415       .  A
C982        H986   1.082       .  S
C987        C988   1.401       .  A
C987        C992   1.395       .  A
C987        H993   1.084       .  S
C988        C989   1.403       .  A
C989        C990   1.393       .  A
C989        H994   1.084       .  S
C990        C991   1.404       .  A
C990        H995   1.083       .  S
C991        C992   1.405       .  A
C992        H996   1.084       .  S
C997        C998   1.405       .  A
C997       C1002   1.395       .  A
C997       H1003   1.084       .  S
C998        C999   1.401       .  A
C999       C1000   1.394       .  A
C999       H1004   1.084       .  S
C1000      C1001   1.407       .  A
C1000      H1005   1.083       .  S
C1001      C1002   1.402       .  A
C1002      H1006   1.083       .  S
C1007      C1008   1.403       .  A
C1007      C1012   1.393       .  A
C1007      H1013   1.084       .  S
C1008      C1009   1.402       .  A
C1009      C1010   1.394       .  A
C1009      H1014   1.084       .  S
C1010      C1011   1.399       .  A
C1010      H1015   1.083       .  S
C1011      C1012   1.404       .  A
C1012      H1016   1.084       .  S
C1017      C1018   1.214       .  T
C1019      C1020   1.204       .  T
C1021      C1022   1.220       .  T
C1023      C1024   1.211       .  T
C1025      C1026   1.207       .  T
C1027      C1028   1.218       .  T
C1029      C1030   1.400       .  A
C1029      C1034   1.394       .  A
C1029      H1035   1.083       .  S
C1030      C1031   1.405       .  A
C1031      C1032   1.395       .  A
C1031      H1036   1.084       .  S
C1032      C1033   1.397       .  A
C1032      H1037   1.084       .  S
C1033      C1034   1.403       .  A
C1034      H1038   1.084       .  S
C1039      C1040   1.405       .  A
C1039      C1044   1.397       .  A
C1039      H1045   1.084       .  S
C1040      C1041   1.403       .  A
C1041      C1042   1.396       .  A
C1041      H1046   1.084       .  S
C1042      C1043   1.404       .  A
C1042      H1047   1.084       .  S
C1043      C1044   1.400       .  A
C1044      H1048   1.083       .  S
C1049      C1050   1.407       .  A
C1049      C1054   1.392       .  A
C1049      H1055   1.083       .  S
C1050      C1051   1.403       .  A
C1051      C1052   1.392   1_556  A
C1051      H1056   1.084       .  S
C1052      C1053   1.402       .  A
C1052      H1057   1.084       .  S
C1053      C1054   1.397   1_554  A
C1054      H1058   1.084       .  S
C1059      C1060   1.207       .  T
C1061      C1062   1.212       .  T
C1063      C1064   1.215       .  T
C1065      C1066   1.209       .  T
C1067      C1068   1.221       .  T
C1069      C1070   1.213       .  T
C1071      C1072   1.205       .  T
C1073      C1074   1.221       .  T
C1075      C1076   1.409       .  A
C1075      C1080   1.393       .  A
C1075      H1081   1.083       .  S
C1076      C1077   1.403       .  A
C1077      C1078   1.395       .  A
C1077      H1082   1.083       .  S
C1078      C1079   1.405       .  A
C1078      H1083   1.084       .  S
C1079      C1080   1.399       .  A
C1080      H1084   1.084       .  S
C1085      C1086   1.397       .  A
C1085      C1090   1.395       .  A
C1085      H1091   1.083       .  S
C1086      C1087   1.407       .  A
C1087      C1088   1.395       .  A
C1087      H1092   1.084       .  S
C1088      C1089   1.397       .  A
C1088      H1093   1.083       .  S
C1089      C1090   1.408       .  A
C1090      H1094   1.084       .  S
C1095      C1096   1.406       .  A
C1095      C1100   1.394       .  A
C1095      H1101   1.084       .  S
C1096      C1097   1.401   1_655  A
C1097      C1098   1.392       .  A
C1097      H1102   1.084       .  S
C1098      C1099   1.403       .  A
C1098      H1103   1.084       .  S
C1099      C1100   1.397   1_455  A
C1100      H1104   1.084       .  S
C1105      C1106   1.227   1_655  T
C1107      C1108   1.207       .  T
C1109      C1110   1.218       .  T
C1111      C1112   1.400       .  A
C1111      C1116   1.394       .  A
C1111      H1117   1.084       .  S
C1112      C1113   1.405       .  A
C1113      C1114   1.393       .  A
C1113      H1118   1.084       .  S
C1114      C1115   1.398       .  A
C1114      H1119   1.083       .  S
C1115      C1116   1.407       .  A
C1116      H1120   1.084       .  S
C1121      C1122   1.404       .  A
C1121      C1126   1.394       .  A
C1121      H1127   1.083       .  S
C1122      C1123   1.406       .  A
C1123      C1124   1.394       .  A
C1123      H1128   1.084       .  S
C1124      C1125   1.404       .  A
C1124      H1129   1.083       .  S
C1125      C1126   1.405       .  A
C1126      H1130   1.084       .  S
C1131      C1132   1.209       .  T
C1133      C1134   1.207       .  T
C1135      C1136   1.219       .  T
C1137      C1138   1.211       .  T
C1139      C1140   1.218       .  T
C1141      C1142   1.208       .  T
C1143      C1144   1.210       .  T
C1145      C1146   1.219       .  T
C1147      C1148   1.400       .  A
C1147      C1152   1.395       .  A
C1147      H1153   1.083       .  S
C1148      C1149   1.410       .  A
C1149      C1150   1.393       .  A
C1149      H1154   1.084       .  S
C1150      C1151   1.399       .  A
C1150      H1155   1.084       .  S
C1151      C1152   1.404       .  A
C1152      H1156   1.084       .  S
C1157      C1158   1.400   1_556  A
C1157      C1162   1.395       .  A
C1157      H1163   1.084       .  S
C1158      C1159   1.403       .  A
C1159      C1160   1.395       .  A
C1159      H1164   1.084       .  S
C1160      C1161   1.402   1_554  A
C1160      H1165   1.084       .  S
C1161      C1162   1.406       .  A
C1162      H1166   1.084       .  S
C1167      C1168   1.396       .  A
C1167      C1172   1.389       .  A
C1167      H1173   1.084       .  S
C1168      C1169   1.409       .  A
C1169      C1170   1.391       .  A
C1169      H1174   1.084       .  S
C1170      C1171   1.393       .  A
C1170      H1175   1.083       .  S
C1171      C1172   1.408       .  A
C1172      H1176   1.084       .  S
C1177      C1178   1.209       .  T
C1179      C1180   1.218       .  T
C1181      C1182   1.196       .  T
C1183      C1184   1.216       .  T
C1185      C1186   1.200       .  T
C1187      C1188   1.203       .  T
C1189      C1190   1.383       .  A
C1189      C1194   1.342       .  A
C1189      H1195   1.068       .  S
C1190      C1191   1.409       .  A
C1191      C1192   1.417       .  A
C1191      H1196   1.084       .  S
C1192      C1193   1.411       .  A
C1192      H1197   1.082       .  S
C1193      C1194   1.381       .  A
C1194      H1198   1.080       .  S
C1199      C1200   1.408       .  A
C1199      C1204   1.400       .  A
C1199      H1205   1.084       .  S
C1200      C1201   1.399       .  A
C1201      C1202   1.398       .  A
C1201      H1206   1.083       .  S
C1202      C1203   1.407       .  A
C1202      H1207   1.084       .  S
C1203      C1204   1.399       .  A
C1204      H1208   1.084       .  S
C1209      C1210   1.398       .  A
C1209      C1214   1.391       .  A
C1209      H1215   1.084       .  S
C1210      C1211   1.402       .  A
C1211      C1212   1.392       .  A
C1211      H1216   1.084       .  S
C1212      C1213   1.397       .  A
C1212      H1217   1.084       .  S
C1213      C1214   1.402       .  A
C1214      H1218   1.084       .  S
C1219      C1220   1.223       .  T
C1221      C1222   1.218       .  T
C1223      C1224   1.212       .  T
C1225      C1226   1.216       .  T
C1227      C1228   1.212       .  T
C1229      C1230   1.218       .  T
C1231      C1232   1.229       .  T
C1233      C1234   1.404   1_556  A
C1233      C1238   1.396       .  A
C1233      H1239   1.083       .  S
C1234      C1235   1.408       .  A
C1235      C1236   1.394       .  A
C1235      H1240   1.083       .  S
C1236      C1237   1.400   1_554  A
C1236      H1241   1.084       .  S
C1237      C1238   1.405       .  A
C1238      H1242   1.084       .  S
C1243      C1244   1.408       .  A
C1243      C1248   1.397       .  A
C1243      H1249   1.083       .  S
C1244      C1245   1.402   1_655  A
C1245      C1246   1.397       .  A
C1245      H1250   1.084       .  S
C1246      C1247   1.407       .  A
C1246      H1251   1.084       .  S
C1247      C1248   1.401   1_455  A
C1248      H1252   1.083       .  S
C1253      C1254   1.216       .  T
C1255      C1256   1.212       .  T
C1257      C1258   1.215       .  T
C1259      C1260   1.410       .  A
C1259      C1264   1.393       .  A
C1259      H1265   1.083       .  S
C1260      C1261   1.401   1_556  A
C1261      C1262   1.396       .  A
C1261      H1266   1.083       .  S
C1262      C1263   1.405       .  A
C1262      H1267   1.084       .  S
C1263      C1264   1.396   1_554  A
C1264      H1268   1.084       .  S
C1269      C1270   1.402   1_556  A
C1269      C1274   1.395       .  A
C1269      H1275   1.084       .  S
C1270      C1271   1.403       .  A
C1271      C1272   1.394       .  A
C1271      H1276   1.084       .  S
C1272      C1273   1.401   1_554  A
C1272      H1277   1.083       .  S
C1273      C1274   1.406       .  A
C1274      H1278   1.084       .  S
C1279      C1280   1.404       .  A
C1279      C1284   1.397       .  A
C1279      H1285   1.084       .  S
C1280      C1281   1.403   1_565  A
C1281      C1282   1.395       .  A
C1281      H1286   1.084       .  S
C1282      C1283   1.407       .  A
C1282      H1287   1.084       .  S
C1283      C1284   1.403   1_545  A
C1284      H1288   1.083       .  S
C1289      C1290   1.402   1_545  A
C1289      C1294   1.398       .  A
C1289      H1295   1.083       .  S
C1290      C1291   1.407       .  A
C1291      C1292   1.399       .  A
C1291      H1296   1.084       .  S
C1292      C1293   1.399   1_565  A
C1292      H1297   1.083       .  S
C1293      C1294   1.407       .  A
C1294      H1298   1.084       .  S
C1299      C1300   1.211       .  T
C1301      C1302   1.220       .  T
C1303      C1304   1.213       .  T
C1305      C1306   1.402       .  A
C1305      C1310   1.397   1_655  A
C1305      H1311   1.084   1_655  S
C1306      C1307   1.405       .  A
C1307      C1308   1.398       .  A
C1307      H1312   1.084       .  S
C1308      C1309   1.400   1_655  A
C1308      H1313   1.084       .  S
C1309      C1310   1.404       .  A
C1310      H1314   1.084       .  S
C1315      C1316   1.404       .  A
C1315      C1320   1.395       .  A
C1315      H1321   1.084       .  S
C1316      C1317   1.403   1_455  A
C1317      C1318   1.395       .  A
C1317      H1322   1.084       .  S
C1318      C1319   1.404       .  A
C1318      H1323   1.084       .  S
C1319      C1320   1.403   1_655  A
C1320      H1324   1.084       .  S
C1325      C1326   1.408       .  A
C1325      C1330   1.393       .  A
C1325      H1331   1.083       .  S
C1326      C1327   1.403       .  A
C1327      C1328   1.395       .  A
C1327      H1332   1.084       .  S
C1328      C1329   1.405       .  A
C1328      H1333   1.084       .  S
C1329      C1330   1.400       .  A
C1330      H1334   1.084       .  S
C1335      C1336   1.397       .  A
C1335      C1340   1.391       .  A
C1335      H1341   1.084       .  S
C1336      C1337   1.404       .  A
C1337      C1338   1.392       .  A
C1337      H1342   1.084       .  S
C1338      C1339   1.399       .  A
C1338      H1343   1.083       .  S
C1339      C1340   1.410       .  A
C1340      H1344   1.084       .  S
C1345      C1346   1.208       .  T
C1347      C1348   1.232       .  T
C1349      C1350   1.204       .  T
C1351      C1352   1.213       .  T
C1353      C1354   1.217       .  T
C1355      C1356   1.209       .  T
C1357      C1358   1.215       .  T
C1359      C1360   1.213       .  T
C1361      C1362   1.398   1_455  A
C1361      C1366   1.394       .  A
C1361      H1367   1.084       .  S
C1362      C1363   1.403       .  A
C1363      C1364   1.394   1_655  A
C1363      H1368   1.084       .  S
C1364      C1365   1.399       .  A
C1364      H1369   1.083   1_455  S
C1365      C1366   1.404       .  A
C1366      H1370   1.084       .  S
C1371      C1372   1.397   1_545  A
C1371      C1376   1.394       .  A
C1371      H1377   1.084       .  S
C1372      C1373   1.406       .  A
C1373      C1374   1.397       .  A
C1373      H1378   1.084       .  S
C1374      C1375   1.402   1_565  A
C1374      H1379   1.083       .  S
C1375      C1376   1.410       .  A
C1376      H1380   1.083       .  S
C1381      C1382   1.404       .  A
C1381      C1386   1.395   1_545  A
C1381      H1387   1.084   1_545  S
C1382      C1383   1.407       .  A
C1383      C1384   1.395       .  A
C1383      H1388   1.083       .  S
C1384      C1385   1.399   1_545  A
C1384      H1389   1.084       .  S
C1385      C1386   1.403       .  A
C1386      H1390   1.084       .  S
C1391      C1392   1.400   1_455  A
C1391      C1396   1.393       .  A
C1391      H1397   1.084       .  S
C1392      C1393   1.406       .  A
C1393      C1394   1.393       .  A
C1393      H1398   1.084       .  S
C1394      C1395   1.398   1_655  A
C1394      H1399   1.084       .  S
C1395      C1396   1.403       .  A
C1396      H1400   1.084       .  S
C1401      C1402   1.228       .  T
C1403      C1404   1.214       .  T
C1405      C1406   1.219       .  T
C1407      C1408   1.394   1_554  A
C1407      C1412   1.391       .  A
C1407      H1413   1.083       .  S
C1408      C1409   1.409       .  A
C1409      C1410   1.393       .  A
C1409      H1414   1.084       .  S
C1410      C1411   1.398   1_556  A
C1410      H1415   1.084       .  S
C1411      C1412   1.407       .  A
C1412      H1416   1.084       .  S
C1417      C1418   1.409       .  A
C1417      C1422   1.398       .  A
C1417      H1423   1.083       .  S
C1418      C1419   1.402   1_655  A
C1419      C1420   1.398       .  A
C1419      H1424   1.083       .  S
C1420      C1421   1.409       .  A
C1420      H1425   1.083       .  S
C1421      C1422   1.402   1_455  A
C1422      H1426   1.083       .  S
C1427      C1428   1.403       .  A
C1427      C1432   1.394       .  A
C1427      H1433   1.084       .  S
C1428      C1429   1.398       .  A
C1429      C1430   1.394   1_455  A
C1429      H1434   1.084   1_455  S
C1430      C1431   1.404       .  A
C1430      H1435   1.084       .  S
C1431      C1432   1.399   1_655  A
C1432      H1436   1.083       .  S
C1437      C1438   1.407       .  A
C1437      C1442   1.393       .  A
C1437      H1443   1.083       .  S
C1438      C1439   1.403   1_556  A
C1439      C1440   1.394       .  A
C1439      H1444   1.083       .  S
C1440      C1441   1.405       .  A
C1440      H1445   1.084       .  S
C1441      C1442   1.400   1_554  A
C1442      H1446   1.084       .  S
C1447      C1448   1.209       .  T
C1449      C1450   1.222       .  T
C1451      C1452   1.208       .  T
C1453      C1454   1.213       .  T
C1455      C1456   1.217       .  T
C1457      C1458   1.219       .  T
C1459      C1460   1.201       .  T
C1461      C1462   1.214       .  T
C1463      C1464   1.215       .  T
