geometry optimzed in LAMMPS
_audit_creation_date              2020-11-30 
_audit_creation_method            'lammps2cif' 
_symmetry_space_group_name_H-M    'P1' 
_symmetry_Int_Tables_number       1 
_symmetry_cell_setting            triclinic 
loop_ 
_symmetry_equiv_pos_as_xyz 
  x,y,z 
_cell_length_a                    38.25487162 
_cell_length_b                    38.2363063366209 
_cell_length_c                    38.20060170424111 
_cell_angle_alpha                 90.40771563012652 
_cell_angle_beta                  90.28451653464957 
_cell_angle_gamma                 90.02731967634216 
loop_ 
_atom_site_label 
_atom_site_type_symbol 
_atom_site_fract_x 
_atom_site_fract_y 
_atom_site_fract_z 
_atom_site_charge 
C1          C  0.97094180  0.02119386  0.00844568     0.01500
C2          C  0.99074684  0.03082227  0.97828197     0.01500
C3          C  0.02036730  0.01038080  0.96819659     0.01500
C4          C  0.03223704  0.98234420  0.98982688     0.01500
C5          C  0.01197350  0.97202603  0.01944030     0.01500
C6          C  0.98208106  0.99229589  0.02946844     0.01500
O7          O  0.02352916  0.17837894  0.85159996    -0.80900
O8          O  0.97256329  0.32528895  0.85786104    -0.81000
O9          O  0.94029366  0.25731847  0.82492431    -0.81000
O10         O  0.05555659  0.24769397  0.82357824    -0.80900
O11         O  0.91870151  0.28271687  0.87026105    -0.81000
O12         O  0.07758753  0.21954157  0.86684210    -0.81000
O13         O  0.00564979  0.29876911  0.81817384    -0.80900
O14         O  0.98963744  0.20696368  0.81433531    -0.81000
C15         C  0.01103460  0.18296541  0.82093287     1.08700
C16         C  0.98491319  0.32278784  0.82700074     1.08600
C17         C  0.91464116  0.27244364  0.83889124     1.08800
C18         C  0.08123574  0.23146260  0.83621812     1.08600
O19         O  0.04345680  0.24174004  0.93116581    -0.80900
O20         O  0.95466026  0.25657738  0.93204015    -0.81000
O21         O  0.96679816  0.17061543  0.87708048    -0.81000
O22         O  0.03061743  0.33007169  0.88232160    -0.80900
O23         O  0.00410158  0.30656697  0.92544539    -0.81000
O24         O  0.99314142  0.19335288  0.92121637    -0.81000
O25         O  0.07185313  0.27572378  0.89422203    -0.80900
O26         O  0.92537958  0.22475994  0.89308566    -0.81000
Co27       Co  0.03125970  0.21149270  0.89230264     1.51500
Co28       Co  0.96566892  0.28948143  0.89567721     1.51700
Co29       Co  0.95884884  0.21815865  0.85290254     1.51600
Co30       Co  0.03755958  0.28467796  0.85491434     1.51500
O31         O  0.99831717  0.25105507  0.87356284    -1.42900
C32         C  0.06749948  0.26299889  0.92472135     1.08700
C33         C  0.93018470  0.23609753  0.92425069     1.08800
C34         C  0.97838581  0.16708083  0.90802512     1.08700
C35         C  0.01917418  0.33286542  0.91318656     1.08700
O36         O  0.86069660  0.02135665  0.17521748    -0.80900
O37         O  0.86107350  0.97467009  0.32538752    -0.81000
O38         O  0.82907758  0.94173669  0.25536133    -0.81000
O39         O  0.82769341  0.05399507  0.24466077    -0.80900
O40         O  0.87247630  0.92000098  0.28377565    -0.81000
O41         O  0.87093120  0.07649966  0.21692804    -0.81000
O42         O  0.82194136  0.00590326  0.29648477    -0.80900
O43         O  0.82246857  0.98872770  0.20341354    -0.81000
C44         C  0.83007944  0.00893718  0.17893026     1.08700
C45         C  0.83015018  0.98627708  0.32141441     1.08600
C46         C  0.84136669  0.91658910  0.27241526     1.08800
C47         C  0.83984450  0.07952079  0.22804528     1.08600
O48         O  0.93528992  0.04436502  0.24286593    -0.80900
O49         O  0.93656323  0.95394019  0.25887492    -0.81000
O50         O  0.88711052  0.96440565  0.17155792    -0.81000
O51         O  0.88572145  0.03238590  0.32926225    -0.80900
O52         O  0.92943012  0.00475056  0.30747434    -0.81000
O53         O  0.92942988  0.99296919  0.19486689    -0.81000
O54         O  0.89640813  0.07328845  0.27438460    -0.80900
O55         O  0.89848451  0.92391715  0.22715490    -0.81000
Co56       Co  0.89863310  0.03076399  0.21083543     1.51500
Co57       Co  0.89934912  0.96642343  0.29036942     1.51700
Co58       Co  0.85978784  0.95806394  0.21751787     1.51600
Co59       Co  0.85844055  0.03800772  0.28299154     1.51500
O60         O  0.87886104  0.99836078  0.25044059    -1.42900
C61         C  0.92743772  0.06878947  0.26334947     1.08700
C62         C  0.92908801  0.92833056  0.23973107     1.08800
C63         C  0.91754472  0.97722722  0.16850941     1.08700
C64         C  0.91660854  0.02082652  0.33314149     1.08700
C65         C  0.02962409  0.01981482  0.51365607     0.01500
C66         C  0.00855379  0.03006515  0.48446050     0.01500
C67         C  0.97927987  0.00926050  0.47400378     0.01500
C68         C  0.96914506  0.98006801  0.49479921     0.01500
C69         C  0.99029391  0.96952067  0.52393018     0.01500
C70         C  0.01986907  0.99020379  0.53413049     0.01500
O71         O  0.02348289  0.82507855  0.64807163    -0.80900
O72         O  0.97803470  0.67477275  0.64332314    -0.81000
O73         O  0.94575240  0.74313601  0.67989543    -0.81000
O74         O  0.05791901  0.75496443  0.67902641    -0.80900
O75         O  0.92295225  0.71581067  0.63589522    -0.81000
O76         O  0.07833590  0.78489676  0.63598450    -0.81000
O77         O  0.00952417  0.70241240  0.68356464    -0.80900
O78         O  0.99321305  0.79499088  0.68672057    -0.81000
C79         C  0.01312037  0.81974868  0.67919033     1.08700
C80         C  0.99035835  0.67734849  0.67416689     1.08600
C81         C  0.92013373  0.72663595  0.66728994     1.08800
C82         C  0.08260940  0.77271058  0.66651775     1.08600
O83         O  0.04611545  0.75945252  0.57154581    -0.80900
O84         O  0.95419442  0.74420538  0.57228537    -0.81000
O85         O  0.96617967  0.82858003  0.62318706    -0.81000
O86         O  0.03483619  0.67260713  0.61784436    -0.80900
O87         O  0.00613431  0.69640218  0.57580771    -0.81000
O88         O  0.99357276  0.80674759  0.57910052    -0.81000
O89         O  0.07574721  0.72780782  0.60975472    -0.80900
O90         O  0.92509631  0.77356340  0.61269558    -0.81000
Co91       Co  0.03228268  0.79066008  0.60904088     1.51500
Co92       Co  0.96832447  0.71117653  0.60732536     1.51700
Co93       Co  0.96098331  0.78208804  0.65008135     1.51600
Co94       Co  0.04100251  0.71760203  0.64729280     1.51500
O95         O  0.00071812  0.75035762  0.62866389    -1.42900
C96         C  0.07120016  0.73966898  0.57909417     1.08700
C97         C  0.92891841  0.76289461  0.58139015     1.08800
C98         C  0.97721847  0.83219773  0.59205232     1.08700
C99         C  0.02234155  0.67019776  0.58702811     1.08700
O100        O  0.17348137  0.86240963  0.01843925    -0.80900
O101        O  0.32541272  0.85474133  0.97472181    -0.81000
O102        O  0.25371379  0.82420859  0.94090135    -0.81000
O103        O  0.24183960  0.82262046  0.04985767    -0.80900
O104        O  0.28514218  0.86566486  0.91975494    -0.81000
O105        O  0.21528535  0.86592486  0.07412106    -0.81000
O106        O  0.29417724  0.81580704  0.00292146    -0.80900
O107        O  0.19965142  0.82155223  0.98706284    -0.81000
C108        C  0.17470081  0.83168273  0.00583856     1.08700
C109        C  0.32026435  0.82366035  0.98501951     1.08600
C110        C  0.27163873  0.83545411  0.91592616     1.08800
C111        C  0.22649318  0.83464153  0.07632588     1.08600
O112        O  0.24548411  0.93001693  0.04526000    -0.80900
O113        O  0.26103807  0.93130879  0.95224871    -0.81000
O114        O  0.17384613  0.88821056  0.96125297    -0.81000
O115        O  0.32859943  0.87920234  0.03195770    -0.80900
O116        O  0.30650768  0.92308947  0.00514857    -0.81000
O117        O  0.19697913  0.92953581  0.99256668    -0.81000
O118        O  0.27363344  0.88817102  0.07310640    -0.80900
O119        O  0.22981495  0.89411957  0.92090731    -0.81000
Co120      Co  0.21131799  0.89637234  0.02955677     1.51500
Co121      Co  0.29115448  0.89345991  0.96584701     1.51700
Co122      Co  0.21729082  0.85721288  0.95596516     1.51600
Co123      Co  0.28164599  0.85201961  0.03603977     1.51500
O124        O  0.25014039  0.87470139  0.99684748    -1.42900
C125        C  0.26312577  0.91953536  0.07082523     1.08700
C126        C  0.24329826  0.92419485  0.92559140     1.08800
C127        C  0.17154964  0.91879547  0.97427844     1.08700
C128        C  0.33213855  0.91049635  0.02121100     1.08700
O129        O  0.00883004  0.79360856  0.18209855    -0.80900
O130        O  0.99230990  0.70295893  0.17860625    -0.81000
O131        O  0.92105632  0.78501567  0.13443372    -0.81000
O132        O  0.07793068  0.71763618  0.12796166    -0.80900
O133        O  0.94437684  0.75516201  0.17588091    -0.81000
O134        O  0.05610867  0.74381054  0.17243867    -0.81000
O135        O  0.02306948  0.67532321  0.13801950    -0.80900
O136        O  0.97647173  0.82494770  0.14617111    -0.81000
C137        C  0.98885629  0.81872581  0.17651407     1.08700
C138        C  0.01203777  0.67845711  0.16923438     1.08600
C139        C  0.91849531  0.77208980  0.16478470     1.08800
C140        C  0.08176034  0.72835366  0.15932731     1.08600
O141        O  0.07333216  0.77564781  0.10427243    -0.80900
O142        O  0.92335070  0.72865082  0.10687086    -0.81000
O143        O  0.00317650  0.80859128  0.07519811    -0.81000
O144        O  0.99212047  0.69629836  0.07089918    -0.80900
O145        O  0.96473754  0.67348348  0.11418757    -0.81000
O146        O  0.03196669  0.83019822  0.11845788    -0.81000
O147        O  0.04366456  0.74445166  0.06524386    -0.80900
O148        O  0.95137035  0.76130856  0.06861651    -0.81000
Co149      Co  0.03923909  0.78281971  0.14375160     1.51500
Co150      Co  0.95961817  0.71818178  0.14339504     1.51700
Co151      Co  0.96618685  0.79159264  0.10632112     1.51600
Co152      Co  0.03110839  0.71179318  0.10124247     1.51500
O153        O  0.99902672  0.75094435  0.12349254    -1.42900
C154        C  0.06819398  0.76482596  0.07307365     1.08700
C155        C  0.92638307  0.74177032  0.07655154     1.08800
C156        C  0.01970182  0.83412066  0.08769468     1.08700
C157        C  0.97567250  0.67066477  0.08304929     1.08700
C158        C  0.23156749  0.71833751  0.25446512     0.01500
C159        C  0.22119451  0.73902512  0.22507798     0.01500
C160        C  0.24211259  0.76834212  0.21483551     0.01500
C161        C  0.27195583  0.77827948  0.23550908     0.01500
C162        C  0.28202384  0.75759274  0.26502206     0.01500
C163        C  0.26092200  0.72860058  0.27538876     0.01500
O164        O  0.19929262  0.68036106  0.48785225    -0.80900
O165        O  0.29307094  0.68491971  0.50191493    -0.81000
O166        O  0.21566580  0.63477240  0.57434897    -0.81000
O167        O  0.28071178  0.63273457  0.41801639    -0.80900
O168        O  0.24211488  0.67860056  0.55117418    -0.81000
O169        O  0.25132668  0.67539298  0.43996411    -0.81000
O170        O  0.32290429  0.64572013  0.47177275    -0.80900
O171        O  0.17274474  0.64097531  0.52040300    -0.81000
C172        C  0.17511258  0.67164638  0.50812588     1.08700
C173        C  0.31848606  0.67686158  0.48287349     1.08600
C174        C  0.22609865  0.66618475  0.57698554     1.08800
C175        C  0.26812082  0.66328031  0.41448678     1.08600
O176        O  0.22515573  0.60481726  0.42221729    -0.80900
O177        O  0.27388242  0.61196255  0.57156851    -0.81000
O178        O  0.19393965  0.57291627  0.49273931    -0.81000
O179        O  0.30671105  0.57733662  0.50272242    -0.80900
O180        O  0.32798990  0.62223351  0.52948714    -0.81000
O181        O  0.17012425  0.61438514  0.46340243    -0.81000
O182        O  0.25780389  0.56818008  0.45242237    -0.80900
O183        O  0.24374402  0.57090852  0.54359331    -0.81000
Co184      Co  0.21467594  0.64350319  0.45666266     1.51500
Co185      Co  0.28109261  0.64879438  0.53514773     1.51700
Co186      Co  0.20994896  0.60538031  0.52963896     1.51600
Co187      Co  0.28857397  0.60645702  0.46429648     1.51500
O188        O  0.24850410  0.62612962  0.49651735    -1.42900
C189        C  0.23833177  0.57458923  0.42688419     1.08700
C190        C  0.26348003  0.58053717  0.56811941     1.08800
C191        C  0.16771435  0.58395089  0.47622665     1.08700
C192        C  0.33209179  0.59087817  0.51889169     1.08700
C193        C  0.27368964  0.72108259  0.73467827     0.01500
C194        C  0.24321293  0.73164340  0.71554725     0.01500
C195        C  0.22282169  0.76075297  0.72765644     0.01500
C196        C  0.23471273  0.78135788  0.75667146     0.01500
C197        C  0.26460666  0.77062818  0.77605246     0.01500
C198        C  0.28490240  0.74160525  0.76412428     0.01500
O199        O  0.42677938  0.77360443  0.89181426    -0.80900
O200        O  0.57413213  0.72529867  0.89361967    -0.81000
O201        O  0.50647520  0.69294923  0.92182131    -0.81000
O202        O  0.49414420  0.80580008  0.92472648    -0.80900
O203        O  0.53344898  0.67023205  0.87836647    -0.81000
O204        O  0.46735301  0.82853828  0.88090335    -0.81000
O205        O  0.54394697  0.75679223  0.93177905    -0.80900
O206        O  0.45562496  0.74112490  0.93000953    -0.81000
C207        C  0.43103574  0.76147153  0.92256539     1.08700
C208        C  0.56873479  0.73677887  0.92454725     1.08600
C209        C  0.52130228  0.66665483  0.90900473     1.08800
C210        C  0.47821992  0.83158531  0.91214023     1.08600
O211        O  0.49388060  0.79607967  0.81749346    -0.80900
O212        O  0.51023488  0.70572477  0.81486559    -0.81000
O213        O  0.42263193  0.71704960  0.86545711    -0.81000
O214        O  0.57981218  0.78291057  0.86973864    -0.80900
O215        O  0.55848478  0.75642189  0.82471512    -0.81000
O216        O  0.44558730  0.74456540  0.82253690    -0.81000
O217        O  0.52532817  0.82433950  0.85747729    -0.80900
O218        O  0.47695336  0.67674695  0.85197620    -0.81000
Co219      Co  0.46163218  0.78257115  0.85353046     1.51500
Co220      Co  0.54080060  0.71754882  0.85341769     1.51700
Co221      Co  0.46849041  0.71021774  0.89205041     1.51600
Co222      Co  0.53284200  0.78911721  0.89527894     1.51500
O223        O  0.50096071  0.74995895  0.87336258    -1.42900
C224        C  0.51330626  0.82105330  0.82650501     1.08700
C225        C  0.48950794  0.68129358  0.82144222     1.08800
C226        C  0.41987110  0.72818399  0.83448140     1.08700
C227        C  0.58373482  0.77267698  0.83831922     1.08700
C228        C  0.75611832  0.23018004  0.78139110     0.01500
C229        C  0.77670575  0.25959831  0.77124345     0.01500
C230        C  0.76600789  0.28062853  0.74232500     0.01500
C231        C  0.73679527  0.27001535  0.72128597     0.01500
C232        C  0.71648006  0.24009921  0.73089789     0.01500
C233        C  0.72676232  0.21968107  0.76050682     0.01500
O234        O  0.88796117  0.42700545  0.77329175    -0.80900
O235        O  0.89072415  0.57582130  0.72617786    -0.81000
O236        O  0.91941253  0.50613101  0.69216383    -0.81000
O237        O  0.92254579  0.49489217  0.80545367    -0.80900
O238        O  0.87610828  0.53502236  0.67102663    -0.81000
O239        O  0.87874803  0.46856867  0.82846228    -0.81000
O240        O  0.92925520  0.54568699  0.75708327    -0.80900
O241        O  0.92620035  0.45465876  0.74009887    -0.81000
C242        C  0.91847882  0.43037202  0.76057271     1.08700
C243        C  0.92172227  0.57052752  0.73722341     1.08600
C244        C  0.90683652  0.52309895  0.66699712     1.08800
C245        C  0.91007557  0.47916735  0.83133383     1.08600
O246        O  0.81500052  0.49573221  0.79617187    -0.80900
O247        O  0.81242950  0.51176051  0.70636835    -0.81000
O248        O  0.86083724  0.42316661  0.71669117    -0.81000
O249        O  0.86731891  0.58083361  0.78421556    -0.80900
O250        O  0.82252607  0.55955950  0.75755792    -0.81000
O251        O  0.81885881  0.44666998  0.74531473    -0.81000
O252        O  0.85505216  0.52626075  0.82494963    -0.80900
O253        O  0.84895694  0.47867545  0.67609763    -0.81000
Co254      Co  0.85061585  0.46285348  0.78269784     1.51500
Co255      Co  0.85095215  0.54215711  0.71833047     1.51700
Co256      Co  0.88851064  0.46880886  0.70958763     1.51600
Co257      Co  0.89287892  0.53383186  0.78950283     1.51500
O258        O  0.87086548  0.50189380  0.75000685    -1.42900
C259        C  0.82394722  0.51476916  0.82146206     1.08700
C260        C  0.81868557  0.49164975  0.68118718     1.08800
C261        C  0.83045350  0.42027287  0.72956035     1.08700
C262        C  0.83603599  0.58482167  0.77391401     1.08700
O263        O  0.01034507  0.20186680  0.32360785    -0.80900
O264        O  0.99486330  0.29679173  0.32303203    -0.81000
O265        O  0.92328823  0.21514748  0.36941299    -0.81000
O266        O  0.07928273  0.28262480  0.37487630    -0.80900
O267        O  0.94664031  0.24308517  0.32670418    -0.81000
O268        O  0.05716372  0.25471282  0.33098832    -0.81000
O269        O  0.02495306  0.32453659  0.36416020    -0.80900
O270        O  0.97806179  0.17373506  0.36201250    -0.81000
C271        C  0.99130591  0.17648275  0.33174466     1.08700
C272        C  0.01329505  0.32234378  0.33302582     1.08600
C273        C  0.92087908  0.22625372  0.33820348     1.08800
C274        C  0.08269286  0.27121798  0.34367674     1.08600
O275        O  0.07480800  0.22630823  0.40073006    -0.80900
O276        O  0.92506149  0.27212014  0.39476831    -0.81000
O277        O  0.00523123  0.19429164  0.43063524    -0.81000
O278        O  0.99360214  0.30560328  0.43081108    -0.80900
O279        O  0.96608327  0.32725223  0.38657122    -0.81000
O280        O  0.03462898  0.17106066  0.38882595    -0.81000
O281        O  0.04411033  0.25729354  0.43856359    -0.80900
O282        O  0.95373451  0.24191959  0.43474616    -0.81000
Co283      Co  0.04096757  0.21665231  0.36128661     1.51500
Co284      Co  0.96156860  0.28160974  0.35821558     1.51700
Co285      Co  0.96803480  0.20969525  0.39886452     1.51600
Co286      Co  0.03254028  0.28900625  0.40143679     1.51500
O287        O  0.00070572  0.24932249  0.37970545    -1.42900
C288        C  0.06921314  0.23763073  0.43163750     1.08700
C289        C  0.92879901  0.26110394  0.42592584     1.08800
C290        C  0.02138488  0.16816322  0.41904446     1.08700
C291        C  0.97685033  0.33074969  0.41788464     1.08700
C292        C  0.22837182  0.27872399  0.24196325     0.01500
C293        C  0.21815798  0.25823325  0.27132611     0.01500
C294        C  0.23885555  0.22895311  0.28132284     0.01500
C295        C  0.26817742  0.21855568  0.26061931     0.01500
C296        C  0.27861777  0.23933639  0.23146667     0.01500
C297        C  0.25752400  0.26841705  0.22092350     0.01500
O298        O  0.20392456  0.31964821  0.00224094    -0.80900
O299        O  0.29369560  0.31616136  0.99169515    -0.81000
O300        O  0.22095683  0.37292079  0.91886270    -0.81000
O301        O  0.28003265  0.36491944  0.07969105    -0.80900
O302        O  0.24495812  0.32712261  0.94077002    -0.81000
O303        O  0.25184847  0.32265081  0.05518975    -0.81000
O304        O  0.32255043  0.35291300  0.02631639    -0.80900
O305        O  0.17728444  0.36022405  0.97082024    -0.81000
C306        C  0.17992379  0.32893745  0.98186722     1.08700
C307        C  0.31803938  0.32259710  0.01291440     1.08600
C308        C  0.23023891  0.34131653  0.91499804     1.08800
C309        C  0.26728280  0.33439144  0.08196181     1.08600
O310        O  0.22367230  0.39162405  0.07342551    -0.80900
O311        O  0.27877565  0.39512729  0.92740975    -0.81000
O312        O  0.19577497  0.42722847  0.00452508    -0.81000
O313        O  0.30931782  0.42329578  0.99868144    -0.80900
O314        O  0.33053688  0.37932608  0.97037175    -0.81000
O315        O  0.17097861  0.38320920  0.02864076    -0.81000
O316        O  0.25829068  0.43033066  0.04822063    -0.80900
O317        O  0.24746041  0.43436245  0.95627914    -0.81000
Co318      Co  0.21586028  0.35478407  0.03661646     1.51500
Co319      Co  0.28374976  0.35487035  0.96082777     1.51700
Co320      Co  0.21361600  0.39803889  0.96592857     1.51600
Co321      Co  0.28931596  0.39264771  0.03484890     1.51500
O322        O  0.25067542  0.37521040  0.99964543    -1.42900
C323        C  0.23743757  0.42191741  0.07204593     1.08700
C324        C  0.26806883  0.42639725  0.93203245     1.08800
C325        C  0.16886455  0.41461202  0.01829890     1.08700
C326        C  0.33465076  0.41006005  0.98233830     1.08700
C327        C  0.23981210  0.27169929  0.77777052     0.01500
C328        C  0.21844175  0.24271279  0.76769997     0.01500
C329        C  0.22876373  0.22078371  0.73908460     0.01500
C330        C  0.25817860  0.23000768  0.71818283     0.01500
C331        C  0.27932992  0.25920939  0.72821573     0.01500
C332        C  0.26928487  0.28089071  0.75703080     0.01500
O333        O  0.57114460  0.27410002  0.60403041    -0.80900
O334        O  0.42358850  0.22533853  0.60358477    -0.81000
O335        O  0.49222997  0.19278284  0.57039127    -0.81000
O336        O  0.50263411  0.30669450  0.57278465    -0.80900
O337        O  0.46465471  0.17093863  0.61410127    -0.81000
O338        O  0.52998648  0.32851160  0.61702128    -0.81000
O339        O  0.45233870  0.25758846  0.56535827    -0.80900
O340        O  0.54220286  0.24249889  0.56479561    -0.81000
C341        C  0.56694528  0.26238903  0.57299147     1.08700
C342        C  0.42776965  0.23740248  0.57291510     1.08600
C343        C  0.47542204  0.16756744  0.58296030     1.08800
C344        C  0.51871805  0.33229591  0.58595641     1.08600
O345        O  0.50519889  0.29321607  0.68014952    -0.80900
O346        O  0.49068118  0.20254927  0.67815806    -0.81000
O347        O  0.57673960  0.21700584  0.62852996    -0.81000
O348        O  0.41912944  0.28206870  0.62960265    -0.80900
O349        O  0.44172475  0.25395244  0.67277484    -0.81000
O350        O  0.55322980  0.24310889  0.67219961    -0.81000
O351        O  0.47329350  0.32293197  0.64234225    -0.80900
O352        O  0.52248815  0.17436453  0.63871777    -0.81000
Co353      Co  0.53669014  0.28170337  0.64282060     1.51500
Co354      Co  0.45848639  0.21635535  0.64177295     1.51700
Co355      Co  0.53031886  0.21000999  0.60114000     1.51600
Co356      Co  0.46496989  0.28894760  0.60286509     1.51500
O357        O  0.49758077  0.24915580  0.62202077    -1.42900
C358        C  0.48516891  0.31803314  0.67314553     1.08700
C359        C  0.51089041  0.17805136  0.66969758     1.08800
C360        C  0.57955414  0.22807689  0.65989577     1.08700
C361        C  0.41609870  0.27044469  0.66043757     1.08700
O362        O  0.31990523  0.00523873  0.20403590    -0.80900
O363        O  0.31801722  0.99031502  0.29436774    -0.81000
O364        O  0.37116725  0.92010472  0.21716712    -0.81000
O365        O  0.36467339  0.07759577  0.28461491    -0.80900
O366        O  0.32677031  0.94187663  0.24376785    -0.81000
O367        O  0.32289563  0.05404468  0.25499421    -0.81000
O368        O  0.35507340  0.02258847  0.32506720    -0.80900
O369        O  0.36009424  0.97461384  0.17587900    -0.81000
C370        C  0.32882135  0.98524274  0.17962216     1.08700
C371        C  0.32476689  0.00978538  0.31992586     1.08600
C372        C  0.33992325  0.91634091  0.22770925     1.08800
C373        C  0.33406979  0.08005003  0.27186917     1.08600
O374        O  0.39133104  0.07499095  0.22792401    -0.80900
O375        O  0.39483655  0.92520839  0.27508162    -0.81000
O376        O  0.42715557  0.00619532  0.19689477    -0.81000
O377        O  0.42499545  0.99573532  0.30742384    -0.80900
O378        O  0.38235507  0.96682858  0.32929804    -0.81000
O379        O  0.38379380  0.03254745  0.17291795    -0.81000
O380        O  0.43033833  0.04747631  0.26048995    -0.80900
O381        O  0.43401118  0.95466564  0.24502020    -0.81000
Co382      Co  0.35502306  0.03837625  0.21800311     1.51500
Co383      Co  0.35592111  0.95944113  0.28267459     1.51700
Co384      Co  0.39758951  0.96702235  0.21204630     1.51600
Co385      Co  0.39351689  0.03275032  0.29109293     1.51500
O386        O  0.37558636  0.99942440  0.25088610    -1.42900
C387        C  0.42190225  0.07207829  0.24073264     1.08700
C388        C  0.42573748  0.92907449  0.26357165     1.08800
C389        C  0.41495739  0.02137492  0.17049294     1.08700
C390        C  0.41297234  0.97928658  0.33292874     1.08700
C391        C  0.48967400  0.02828053  0.52058871     0.01500
C392        C  0.46893544  0.01635506  0.49185935     0.01500
C393        C  0.47982630  0.98684494  0.47170388     0.01500
C394        C  0.50984446  0.96713585  0.48241523     0.01500
C395        C  0.53038526  0.97880713  0.51178437     0.01500
C396        C  0.51895497  0.00820814  0.53212233     0.01500
O397        O  0.45624817  0.76053882  0.43236839    -0.80900
O398        O  0.54840846  0.74423477  0.42998674    -0.81000
O399        O  0.46703724  0.67223605  0.38433754    -0.81000
O400        O  0.53379920  0.82835821  0.37744140    -0.80900
O401        O  0.49669350  0.69509669  0.42674813    -0.81000
O402        O  0.50813675  0.80678003  0.42214947    -0.81000
O403        O  0.57581141  0.77434462  0.38918179    -0.80900
O404        O  0.42649666  0.72703183  0.39549497    -0.81000
C405        C  0.43136698  0.74011018  0.42593906     1.08700
C406        C  0.57306956  0.76361919  0.42049356     1.08600
C407        C  0.47919478  0.66964883  0.41505135     1.08800
C408        C  0.52397614  0.83217632  0.40898431     1.08600
O409        O  0.47648846  0.82273277  0.35284208    -0.80900
O410        O  0.52377344  0.67420987  0.35815907    -0.81000
O411        O  0.44311533  0.75361202  0.32510290    -0.81000
O412        O  0.55506331  0.74123334  0.32263305    -0.80900
O413        O  0.57920844  0.71585732  0.36632305    -0.81000
O414        O  0.42151352  0.78292713  0.36798017    -0.81000
O415        O  0.50675798  0.79136780  0.31490393    -0.80900
O416        O  0.49089923  0.70176341  0.31922030    -0.81000
Co417      Co  0.46869221  0.79000675  0.39343478     1.51500
Co418      Co  0.53385197  0.71068665  0.39482635     1.51700
Co419      Co  0.46021574  0.71676096  0.35629999     1.51600
Co420      Co  0.53950103  0.78089230  0.35169415     1.51500
O421        O  0.50058921  0.74944913  0.37428218    -1.42900
C422        C  0.48715611  0.81656363  0.32180107     1.08700
C423        C  0.51120749  0.67735209  0.32743665     1.08800
C424        C  0.41764637  0.77026800  0.33740738     1.08700
C425        C  0.58160170  0.72649045  0.33501297     1.08700
O426        O  0.56685579  0.95443665  0.74096113    -0.80900
O427        O  0.56767361  0.04782995  0.75950656    -0.81000
O428        O  0.61451394  0.96399546  0.82718494    -0.81000
O429        O  0.61514941  0.03681278  0.67414637    -0.80900
O430        O  0.57182336  0.99439957  0.80632009    -0.81000
O431        O  0.57219829  0.00790455  0.69589614    -0.81000
O432        O  0.60782948  0.07672298  0.73011294    -0.80900
O433        O  0.60603545  0.92412881  0.77043213    -0.81000
C434        C  0.57508338  0.92874028  0.75925616     1.08700
C435        C  0.57671892  0.07315516  0.74090628     1.08600
C436        C  0.58392250  0.97647582  0.83112549     1.08800
C437        C  0.58418300  0.02517560  0.67079047     1.08600
O438        O  0.63953491  0.97942583  0.67391047    -0.80900
O439        O  0.64035384  0.02119409  0.82728453    -0.81000
O440        O  0.67432556  0.94541021  0.74317537    -0.81000
O441        O  0.67530668  0.05415231  0.75847368    -0.80900
O442        O  0.63291346  0.07718182  0.78721641    -0.81000
O443        O  0.63163599  0.92335953  0.71342060    -0.81000
O444        O  0.67956473  0.00814121  0.70421050    -0.80900
O445        O  0.67941400  0.99096620  0.79742863    -0.81000
Co446      Co  0.60297982  0.96912862  0.70957594     1.51500
Co447      Co  0.60359663  0.03212051  0.79150496     1.51700
Co448      Co  0.64313650  0.95954690  0.78164951     1.51600
Co449      Co  0.64408842  0.04050666  0.71967189     1.51500
O450        O  0.62327892  0.00030523  0.75066015    -1.42900
C451        C  0.67045436  0.99090361  0.67766274     1.08700
C452        C  0.67111736  0.00944882  0.82328167     1.08800
C453        C  0.66265045  0.92025516  0.72524997     1.08700
C454        C  0.66370869  0.08003617  0.77514096     1.08700
C455        C  0.51957687  0.98919580  0.97088558     0.01500
C456        C  0.49070304  0.96824904  0.98184143     0.01500
C457        C  0.47027029  0.97865727  0.01140563     0.01500
C458        C  0.48060447  0.00852247  0.03182230     0.01500
C459        C  0.51007260  0.02911788  0.02141503     0.01500
C460        C  0.53064797  0.01821661  0.99203160     0.01500
O461        O  0.45497975  0.24513170  0.06969944    -0.80900
O462        O  0.54714599  0.25900684  0.07290335    -0.81000
O463        O  0.46837423  0.33027576  0.12293783    -0.81000
O464        O  0.53135353  0.17143603  0.11957541    -0.80900
O465        O  0.49647003  0.30832224  0.07952951    -0.81000
O466        O  0.50510711  0.19498594  0.07588224    -0.81000
O467        O  0.57406838  0.22536074  0.11148406    -0.80900
O468        O  0.42579037  0.27647169  0.10864935    -0.81000
C469        C  0.43006440  0.26492861  0.07759404     1.08700
C470        C  0.57116283  0.23814388  0.08098419     1.08600
C471        C  0.48029205  0.33403882  0.09217747     1.08800
C472        C  0.52049377  0.16870452  0.08816969     1.08600
O473        O  0.47395661  0.17624272  0.14344765    -0.80900
O474        O  0.52444719  0.32368375  0.15045230    -0.81000
O475        O  0.44160175  0.24486805  0.17714963    -0.81000
O476        O  0.55538071  0.25372386  0.18026833    -0.80900
O477        O  0.57887101  0.28213234  0.13825239    -0.81000
O478        O  0.42008688  0.21858805  0.13207203    -0.81000
O479        O  0.50504161  0.20434964  0.18369100    -0.80900
O480        O  0.49107063  0.29408810  0.18683804    -0.81000
Co481      Co  0.46673103  0.21211332  0.10592669     1.51500
Co482      Co  0.53344284  0.29003456  0.11056430     1.51700
Co483      Co  0.46010148  0.28331076  0.14828643     1.51600
Co484      Co  0.53808347  0.21688407  0.14829239     1.51500
O485        O  0.49961402  0.25057080  0.12813164    -1.42900
C486        C  0.48541266  0.17969044  0.17462845     1.08700
C487        C  0.51196835  0.31845431  0.18089229     1.08800
C488        C  0.41622833  0.22880570  0.16351810     1.08700
C489        C  0.58173536  0.26934119  0.16865332     1.08700
O490        O  0.17645674  0.14080392  0.47371171    -0.80900
O491        O  0.32487328  0.14070873  0.52161679    -0.81000
O492        O  0.25710397  0.17396849  0.55326092    -0.81000
O493        O  0.24416058  0.17081316  0.44123356    -0.80900
O494        O  0.28357179  0.13085603  0.57706893    -0.81000
O495        O  0.21669618  0.12682698  0.41935895    -0.81000
O496        O  0.29574618  0.17839064  0.48878879    -0.80900
O497        O  0.20643942  0.17993553  0.50432505    -0.81000
C498        C  0.18082588  0.17179742  0.48544789     1.08700
C499        C  0.32083494  0.17098627  0.50855631     1.08600
C500        C  0.27215363  0.16193640  0.57979695     1.08800
C501        C  0.22722673  0.15804851  0.41597429     1.08600
O502        O  0.24170193  0.06368646  0.45458806    -0.80900
O503        O  0.25798208  0.06650920  0.54466731    -0.81000
O504        O  0.17173835  0.11757702  0.53126559    -0.81000
O505        O  0.32841332  0.11407999  0.46463257    -0.80900
O506        O  0.30634771  0.07152629  0.49365201    -0.81000
O507        O  0.19355390  0.07285110  0.50504797    -0.81000
O508        O  0.27330561  0.10114695  0.42431288    -0.80900
O509        O  0.22628044  0.10615658  0.57263897    -0.81000
Co510      Co  0.21050062  0.10150064  0.46618985     1.51500
Co511      Co  0.28993270  0.10281840  0.53119831     1.51700
Co512      Co  0.21842570  0.14387655  0.53711093     1.51600
Co513      Co  0.28235973  0.14076919  0.45799607     1.51500
O514        O  0.25038327  0.12210325  0.49819063    -1.42900
C515        C  0.26163095  0.07042939  0.42965716     1.08700
C516        C  0.23788953  0.07513210  0.56903748     1.08800
C517        C  0.16796966  0.08629997  0.52055334     1.08700
C518        C  0.33182840  0.08359061  0.47696850     1.08700
C519        C  0.77123286  0.77995131  0.26270897     0.01500
C520        C  0.74137196  0.76908220  0.28246676     0.01500
C521        C  0.72035898  0.74044499  0.27020233     0.01500
C522        C  0.73087149  0.72087517  0.23996176     0.01500
C523        C  0.76039668  0.73192820  0.22012786     0.01500
C524        C  0.78132843  0.76050808  0.23223536     0.01500
O525        O  0.60996751  0.57498709  0.27283030    -0.80900
O526        O  0.60796359  0.42525455  0.22471751    -0.81000
O527        O  0.57693474  0.49453219  0.19282275    -0.81000
O528        O  0.57733181  0.50590444  0.30496479    -0.80900
O529        O  0.61962209  0.46622306  0.16997543    -0.81000
O530        O  0.62085546  0.53337468  0.32765862    -0.81000
O531        O  0.57025010  0.45526007  0.25644181    -0.80900
O532        O  0.57097136  0.54613467  0.24098995    -0.81000
C533        C  0.57913292  0.57104350  0.26090956     1.08700
C534        C  0.57744443  0.42968555  0.23722412     1.08600
C535        C  0.58894146  0.47831968  0.16687641     1.08800
C536        C  0.58973835  0.52215722  0.33082549     1.08600
O537        O  0.68489846  0.50852023  0.29415981    -0.80900
O538        O  0.68410290  0.49065417  0.20221319    -0.81000
O539        O  0.63480192  0.57866010  0.21543068    -0.81000
O540        O  0.63428420  0.42086785  0.28144854    -0.80900
O541        O  0.67756886  0.44255012  0.25350835    -0.81000
O542        O  0.67801684  0.55604870  0.24309517    -0.81000
O543        O  0.64658629  0.47626918  0.32277233    -0.80900
O544        O  0.64551996  0.52337046  0.17407052    -0.81000
Co545      Co  0.64789613  0.53982890  0.28136011     1.51500
Co546      Co  0.64683352  0.45965000  0.21578882     1.51700
Co547      Co  0.60754702  0.53254144  0.20914854     1.51600
Co548      Co  0.60766943  0.46770735  0.28806350     1.51500
O549        O  0.62770229  0.49997412  0.24858142    -1.42900
C550        C  0.67745309  0.48789306  0.31824368     1.08700
C551        C  0.67631571  0.51142201  0.17813294     1.08800
C552        C  0.66574726  0.58189681  0.22714816     1.08700
C553        C  0.66509279  0.41696349  0.26965358     1.08700
C554        C  0.78233823  0.23705076  0.27146607     0.01500
C555        C  0.77097225  0.21660671  0.24201752     0.01500
C556        C  0.74153949  0.22774506  0.22178022     0.01500
C557        C  0.72122122  0.25711146  0.23307768     0.01500
C558        C  0.73260414  0.27789555  0.26230441     0.01500
C559        C  0.76244735  0.26700890  0.28236055     0.01500
C560        C  0.78262541  0.74364247  0.73260758     0.01500
C561        C  0.77074733  0.72328881  0.76140752     0.01500
C562        C  0.74105727  0.73438793  0.78100818     0.01500
C563        C  0.72107768  0.76389431  0.76978423     0.01500
C564        C  0.73260118  0.78408439  0.74050407     0.01500
C565        C  0.76255296  0.77296406  0.72092873     0.01500
O566        O  0.18603116  0.01259012  0.79627664    -0.80900
O567        O  0.18562796  0.99517963  0.70618713    -0.81000
O568        O  0.14158307  0.92314563  0.78638968    -0.81000
O569        O  0.13132850  0.07854414  0.71722861    -0.80900
O570        O  0.18312590  0.94696011  0.75747518    -0.81000
O571        O  0.17605242  0.05838460  0.74460595    -0.81000
O572        O  0.14471998  0.02383560  0.67714929    -0.80900
O573        O  0.14995076  0.97974450  0.82676093    -0.81000
C574        C  0.18013172  0.99267197  0.82134464     1.08700
C575        C  0.17637306  0.01425989  0.68133626     1.08600
C576        C  0.17222053  0.92085937  0.77397299     1.08800
C577        C  0.16233583  0.08313814  0.72812508     1.08600
O578        O  0.10756943  0.07502144  0.77485828    -0.80900
O579        O  0.11582977  0.92395417  0.72886560    -0.81000
O580        O  0.07920395  0.00420580  0.80724837    -0.81000
O581        O  0.07791308  0.99099333  0.69647480    -0.80900
O582        O  0.12261073  0.96554050  0.67372908    -0.81000
O583        O  0.12080745  0.03506224  0.82947999    -0.81000
O584        O  0.06908846  0.04422148  0.74433956    -0.80900
O585        O  0.07583966  0.95104505  0.76055892    -0.81000
Co586      Co  0.14731151  0.04182035  0.78340713     1.51500
Co587      Co  0.15112463  0.96136121  0.71956195     1.51700
Co588      Co  0.11183752  0.96760150  0.79203245     1.51600
Co589      Co  0.10633160  0.03125656  0.71221287     1.51500
O590        O  0.12900274  0.00041749  0.75180033    -1.42900
C591        C  0.07670226  0.07028505  0.76317986     1.08700
C592        C  0.08517675  0.92601914  0.74135848     1.08800
C593        C  0.09040687  0.02221738  0.83249709     1.08700
C594        C  0.09100208  0.97534910  0.67055581     1.08700
O595        O  0.73979824  0.43307336  0.54549317    -0.80900
O596        O  0.75238945  0.42984497  0.45397399    -0.81000
O597        O  0.82670540  0.38684181  0.53429192    -0.81000
O598        O  0.66907777  0.37794438  0.46953182    -0.80900
O599        O  0.80254477  0.42833830  0.50512570    -0.81000
O600        O  0.69190495  0.42268475  0.49487532    -0.81000
O601        O  0.72258321  0.38801029  0.42711459    -0.80900
O602        O  0.77251242  0.39660198  0.57580318    -0.81000
C603        C  0.75963091  0.42688321  0.57080064     1.08700
C604        C  0.73376935  0.41927148  0.42890451     1.08600
C605        C  0.82878193  0.41739465  0.52172805     1.08800
C606        C  0.66577131  0.40942480  0.47999373     1.08600
O607        O  0.67528037  0.35493996  0.52705277    -0.80900
O608        O  0.82383762  0.36000214  0.47749090    -0.81000
O609        O  0.74580097  0.32611826  0.55832402    -0.81000
O610        O  0.75533436  0.32216181  0.44734885    -0.80900
O611        O  0.78113222  0.36583798  0.42334934    -0.81000
O612        O  0.71704248  0.36885520  0.58079473    -0.81000
O613        O  0.70532493  0.31579504  0.49703088    -0.80900
O614        O  0.79731098  0.32071983  0.51021907    -0.81000
Co615      Co  0.70919663  0.39455374  0.53410596     1.51500
Co616      Co  0.78664747  0.39561892  0.46814232     1.51700
Co617      Co  0.78247967  0.35767526  0.54145921     1.51600
Co618      Co  0.71613140  0.35163345  0.46359215     1.51500
O619        O  0.74874639  0.37479763  0.50174440    -1.42900
C620        C  0.67993090  0.32383489  0.51594108     1.08700
C621        C  0.82158095  0.32940644  0.49008246     1.08800
C622        C  0.72948155  0.33822731  0.58407964     1.08700
C623        C  0.77099291  0.33423722  0.42118613     1.08700
C624        C  0.96751481  0.48215661  0.51033298     0.01500
C625        C  0.97876137  0.51134058  0.53113831     0.01500
C626        C  0.00870625  0.53122042  0.52069702     0.01500
C627        C  0.02848590  0.52033421  0.49074255     0.01500
C628        C  0.01689050  0.49133544  0.46992140     0.01500
C629        C  0.98787174  0.47080055  0.48114685     0.01500
O630        O  0.82479056  0.64713528  0.02167822    -0.80900
O631        O  0.67666664  0.64613918  0.97407652    -0.81000
O632        O  0.74425750  0.67488868  0.94090069    -0.81000
O633        O  0.75668223  0.68121861  0.05353448    -0.80900
O634        O  0.71682290  0.63082354  0.91951816    -0.81000
O635        O  0.78408837  0.63840555  0.07713577    -0.81000
O636        O  0.70610645  0.68603871  0.00419122    -0.80900
O637        O  0.79570763  0.68388419  0.98774844    -0.81000
C638        C  0.82009047  0.67736151  0.00867756     1.08700
C639        C  0.68077048  0.67735081  0.98521862     1.08600
C640        C  0.72780937  0.66189171  0.91551426     1.08800
C641        C  0.77274703  0.66948182  0.07967895     1.08600
O642        O  0.75786600  0.57360556  0.04726128    -0.80900
O643        O  0.74100435  0.56823726  0.95716357    -0.81000
O644        O  0.82845585  0.61894297  0.96556508    -0.81000
O645        O  0.67120657  0.62383334  0.03211549    -0.80900
O646        O  0.69414014  0.57908189  0.00733244    -0.81000
O647        O  0.80706152  0.57678012  0.99572132    -0.81000
O648        O  0.72624154  0.61403365  0.07429184    -0.80900
O649        O  0.77306797  0.60424533  0.92578416    -0.81000
Co650      Co  0.79005104  0.60930712  0.03223880     1.51500
Co651      Co  0.71046924  0.60665650  0.96744752     1.51700
Co652      Co  0.78231781  0.64519659  0.95824755     1.51600
Co653      Co  0.71812891  0.65056800  0.03766836     1.51500
O654        O  0.75034595  0.62790578  0.99903648    -1.42900
C655        C  0.73820674  0.58304759  0.07184385     1.08700
C656        C  0.76109370  0.57381324  0.93220547     1.08800
C657        C  0.83218072  0.58859809  0.97819020     1.08700
C658        C  0.66800593  0.59224756  0.02200594     1.08700
C659        C  0.48154156  0.50790808  0.96863511     0.01500
C660        C  0.51081915  0.52936350  0.97800266     0.01500
C661        C  0.53204651  0.52033310  0.00761517     0.01500
C662        C  0.52289052  0.49063945  0.02846171     0.01500
C663        C  0.49340729  0.46945099  0.01918587     0.01500
C664        C  0.47163944  0.47940209  0.99048724     0.01500
O665        O  0.79511875  0.18249302  0.00859836    -0.80900
O666        O  0.70261147  0.17999294  0.99445321    -0.81000
O667        O  0.78229121  0.13322085  0.92247182    -0.81000
O668        O  0.71672083  0.13116325  0.07910399    -0.80900
O669        O  0.75389284  0.17559414  0.94602371    -0.81000
O670        O  0.74391446  0.17532656  0.05740446    -0.81000
O671        O  0.67454698  0.13999578  0.02497173    -0.80900
O672        O  0.82433363  0.14384784  0.97702392    -0.81000
C673        C  0.82017000  0.17468047  0.98899554     1.08700
C674        C  0.67806944  0.17117101  0.01414940     1.08600
C675        C  0.76960652  0.16380826  0.91972019     1.08800
C676        C  0.72741664  0.16242715  0.08268113     1.08600
O677        O  0.77469953  0.10779020  0.07572990    -0.80900
O678        O  0.72607653  0.10661507  0.92596560    -0.81000
O679        O  0.80700039  0.07493756  0.00575240    -0.81000
O680        O  0.69446331  0.07193433  0.99516416    -0.80900
O681        O  0.67168862  0.11537429  0.96751050    -0.81000
O682        O  0.82894538  0.11867071  0.03395041    -0.81000
O683        O  0.74429226  0.06752075  0.04698394    -0.80900
O684        O  0.75831614  0.06827247  0.95463910    -0.81000
Co685      Co  0.78252912  0.14552295  0.04049064     1.51500
Co686      Co  0.71668675  0.14404917  0.96182259     1.51700
Co687      Co  0.78964679  0.10543423  0.96805205     1.51600
Co688      Co  0.71097530  0.10313835  0.03336716     1.51500
O689        O  0.74993160  0.12447048  0.00099977    -1.42900
C690        C  0.76351619  0.07661847  0.07223190     1.08700
C691        C  0.73840866  0.07598964  0.92977087     1.08800
C692        C  0.83257287  0.08766641  0.02223355     1.08700
C693        C  0.66881909  0.08420918  0.97842778     1.08700
O694        O  0.36152016  0.52474765  0.67287240    -0.80900
O695        O  0.35722688  0.47436276  0.82100812    -0.81000
O696        O  0.32561919  0.44446161  0.75092229    -0.81000
O697        O  0.32638161  0.55636828  0.74190084    -0.80900
O698        O  0.36853212  0.42087128  0.77847383    -0.81000
O699        O  0.37111195  0.57831706  0.71589283    -0.81000
O700        O  0.31851355  0.50668164  0.79270241    -0.80900
O701        O  0.32099162  0.49348120  0.69956625    -0.81000
C702        C  0.33046058  0.51325173  0.67522539     1.08700
C703        C  0.32652105  0.48668220  0.81745295     1.08600
C704        C  0.33762286  0.41823949  0.76646749     1.08800
C705        C  0.33965676  0.58181174  0.72598454     1.08600
O706        O  0.43407638  0.54402448  0.74302429    -0.80900
O707        O  0.43312913  0.45444963  0.75524745    -0.81000
O708        O  0.38485576  0.46689037  0.66887992    -0.81000
O709        O  0.38207494  0.53159006  0.82715415    -0.80900
O710        O  0.42599001  0.50409841  0.80527157    -0.81000
O711        O  0.42864315  0.49414793  0.69199578    -0.81000
O712        O  0.39469761  0.57344716  0.77353130    -0.80900
O713        O  0.39479283  0.42558131  0.72259624    -0.81000
Co714      Co  0.39830157  0.53222799  0.70934438     1.51500
Co715      Co  0.39586503  0.46651614  0.78668211     1.51700
Co716      Co  0.35682226  0.46083790  0.71372902     1.51600
Co717      Co  0.35588654  0.53869264  0.78056676     1.51500
O718        O  0.37654662  0.49963211  0.74752347    -1.42900
C719        C  0.42580851  0.56911157  0.76254888     1.08700
C720        C  0.42553180  0.42980135  0.73489429     1.08800
C721        C  0.41601216  0.47766758  0.66618667     1.08700
C722        C  0.41291928  0.51997751  0.83099105     1.08700
O723        O  0.77270556  0.89108870  0.42539413    -0.80900
O724        O  0.72953681  0.89640271  0.57703619    -0.81000
O725        O  0.69478692  0.92781191  0.50661170    -0.81000
O726        O  0.80585173  0.92710488  0.49387038    -0.80900
O727        O  0.67396515  0.88530413  0.53695179    -0.81000
O728        O  0.82812629  0.88317143  0.46644668    -0.81000
O729        O  0.75953852  0.93469590  0.54636784    -0.80900
O730        O  0.74236518  0.93145087  0.45368468    -0.81000
C731        C  0.76137181  0.92218107  0.42857643     1.08700
C732        C  0.74019907  0.92739452  0.57160056     1.08600
C733        C  0.67004166  0.91578528  0.52452352     1.08800
C734        C  0.83139449  0.91434494  0.47766624     1.08600
O735        O  0.79699521  0.81978899  0.49484671    -0.80900
O736        O  0.70458794  0.82015202  0.51181884    -0.81000
O737        O  0.71538427  0.86612290  0.42421776    -0.81000
O738        O  0.78648799  0.87095562  0.57967368    -0.80900
O739        O  0.75807944  0.82719549  0.55817953    -0.81000
O740        O  0.74436061  0.82349191  0.44686466    -0.81000
O741        O  0.82639784  0.86012061  0.52445880    -0.80900
O742        O  0.67518312  0.85846770  0.48011020    -0.81000
Co743      Co  0.78249835  0.85495103  0.46188860     1.51500
Co744      Co  0.71956311  0.85759256  0.54257926     1.51700
Co745      Co  0.71046314  0.89560367  0.46928204     1.51600
Co746      Co  0.79110281  0.89773675  0.53312979     1.51500
O747        O  0.75083362  0.87647673  0.50166569    -1.42900
C748        C  0.82237062  0.82887029  0.51372645     1.08700
C749        C  0.67952121  0.82780467  0.49201269     1.08800
C750        C  0.72718316  0.83517665  0.42130834     1.08700
C751        C  0.77544964  0.83982054  0.58327210     1.08700
O752        O  0.06933506  0.54717433  0.25768268    -0.80900
O753        O  0.06534233  0.45495644  0.24006837    -0.81000
O754        O  0.12303227  0.52961035  0.17069023    -0.81000
O755        O  0.11779222  0.46785790  0.32990144    -0.80900
O756        O  0.07715045  0.50551241  0.19166331    -0.81000
O757        O  0.07450242  0.49613003  0.30795341    -0.81000
O758        O  0.10168886  0.42663787  0.27542530    -0.80900
O759        O  0.10972676  0.57210261  0.22445960    -0.81000
C760        C  0.07883603  0.57054968  0.23660956     1.08700
C761        C  0.07127979  0.43170949  0.26245853     1.08600
C762        C  0.09140212  0.52045040  0.16623799     1.08800
C763        C  0.08709214  0.47972958  0.33353681     1.08600
O764        O  0.14572025  0.52350734  0.32377308    -0.80900
O765        O  0.14635859  0.47213756  0.17852641    -0.81000
O766        O  0.17651751  0.55495512  0.25735980    -0.81000
O767        O  0.17178097  0.44001315  0.24560842    -0.80900
O768        O  0.12768258  0.41837629  0.21854283    -0.81000
O769        O  0.13281193  0.57857382  0.28320279    -0.81000
O770        O  0.18167307  0.48875189  0.29446464    -0.80900
O771        O  0.18424752  0.50377977  0.20925991    -0.81000
Co772      Co  0.10594855  0.53285258  0.28984310     1.51500
Co773      Co  0.10465672  0.46609786  0.21047555     1.51700
Co774      Co  0.14754453  0.53670086  0.21852570     1.51600
Co775      Co  0.14276876  0.45902092  0.28325726     1.51500
O776        O  0.12456433  0.49877245  0.25058910    -1.42900
C777        C  0.17602814  0.51044012  0.31838475     1.08700
C778        C  0.17746954  0.48278575  0.18493673     1.08800
C779        C  0.16380806  0.58141605  0.27232335     1.08700
C780        C  0.15845288  0.41434260  0.23001727     1.08700
C781        C  0.47977390  0.49120681  0.52793754     0.01500
C782        C  0.46994278  0.52111020  0.50793294     0.01500
C783        C  0.49149645  0.53168565  0.47935549     0.01500
C784        C  0.52032490  0.51032277  0.46823865     0.01500
C785        C  0.52897560  0.47956699  0.48769265     0.01500
C786        C  0.50782333  0.46931420  0.51661335     0.01500
C787        C  0.02063082  0.51125277  0.02864934     0.01500
C788        C  0.03092413  0.48211271  0.00746724     0.01500
C789        C  0.00980264  0.47177997  0.97818636     0.01500
C790        C  0.98015806  0.49214655  0.96829602     0.01500
C791        C  0.96961813  0.52095141  0.98959848     0.01500
C792        C  0.99103453  0.53184832  0.01846322     0.01500
C793        C  0.04065368  0.50400822  0.12717546    -0.27100
C794        C  0.07257880  0.52213142  0.13109019    -0.15200
C795        C  0.08597658  0.53896951  0.10081565     0.35400
C796        C  0.06846674  0.53589279  0.06817126    -0.26600
C797        C  0.03736172  0.51653910  0.06433278    -0.15800
C798        C  0.02324063  0.50071465  0.09467964     0.36500
N799        N  0.99146064  0.48057129  0.09369081    -0.90100
H800        H  0.02929807  0.49107333  0.14955600     0.17600
H801        H  0.07962933  0.54831975  0.04541143     0.17600
N802        N  0.11718714  0.55953195  0.10214776    -0.89100
H803        H  0.99773927  0.45492154  0.10066551     0.35000
H804        H  0.98071707  0.47914645  0.06861958     0.40100
H805        H  0.13795909  0.54331741  0.10888774     0.39700
H806        H  0.11426271  0.57885974  0.12142720     0.34600
C807        C  0.46145637  0.50150653  0.62572871    -0.27100
C808        C  0.43475536  0.47689195  0.63159020    -0.15200
C809        C  0.42508409  0.45447378  0.60323637     0.35400
C810        C  0.43911840  0.45989863  0.56959796    -0.26600
C811        C  0.46437714  0.48584699  0.56365483    -0.15800
C812        C  0.47679240  0.50549453  0.59267061     0.36500
N813        N  0.50574430  0.52905881  0.58951472    -0.90100
H814        H  0.47041872  0.51820717  0.64697586     0.17600
H815        H  0.43053491  0.44341367  0.54805819     0.17600
N816        N  0.40253185  0.42496735  0.60797826    -0.89100
H817        H  0.49979681  0.54791791  0.57082387     0.35000
H818        H  0.52731807  0.51483704  0.58062609     0.40100
H819        H  0.37774898  0.43342657  0.61538786     0.39700
H820        H  0.41295276  0.40948319  0.62793314     0.34600
C821        C  0.43621933  0.53516197  0.92854066    -0.27100
C822        C  0.46449064  0.51208153  0.93318021    -0.15200
C823        C  0.47664241  0.49311249  0.90355219     0.35400
C824        C  0.45994627  0.49704879  0.87089160    -0.26600
C825        C  0.43128652  0.51966317  0.86610366    -0.15800
C826        C  0.41975471  0.53922659  0.89547156     0.36500
N827        N  0.39154645  0.56353594  0.89191809    -0.90100
H828        H  0.42678710  0.55010178  0.95076379     0.17600
H829        H  0.46936619  0.48156562  0.84902997     0.17600
N830        N  0.50540441  0.46894915  0.90552177    -0.89100
H831        H  0.40082446  0.58831994  0.89904409     0.35000
H832        H  0.37205703  0.55660485  0.90966329     0.40100
H833        H  0.51616435  0.46776567  0.93061908     0.39700
H834        H  0.52513225  0.47817255  0.88917670     0.34600
C835        C  0.87183723  0.54016009  0.99867015    -0.27100
C836        C  0.86680689  0.56946965  0.97705715    -0.15200
C837        C  0.89573740  0.58114641  0.95704887     0.35400
C838        C  0.92908334  0.56536945  0.96145540    -0.26600
C839        C  0.93400386  0.53702304  0.98416461    -0.15800
C840        C  0.90451847  0.52366595  0.00184645     0.36500
N841        N  0.90707104  0.49332719  0.02351948    -0.90100
H842        H  0.85021549  0.53006353  0.01377111     0.17600
H843        H  0.95131725  0.57512833  0.94703953     0.17600
N844        N  0.89128282  0.60887153  0.93225408    -0.89100
H845        H  0.92539433  0.49811240  0.04329347     0.35000
H846        H  0.91609505  0.47246840  0.00823423     0.40100
H847        H  0.87430434  0.59979167  0.91267344     0.39700
H848        H  0.91497481  0.61457288  0.91999800     0.34600
C849        C  0.60239393  0.58914898  0.03364674    -0.27100
C850        C  0.63335902  0.57286505  0.02185409    -0.15200
C851        C  0.63017533  0.53891443  0.00690710     0.35400
C852        C  0.59714554  0.52295938  0.00305426    -0.26600
C853        C  0.56629580  0.53925008  0.01430128    -0.15800
C854        C  0.56918149  0.57275293  0.03048018     0.36500
N855        N  0.53918335  0.59102435  0.04379801    -0.90100
H856        H  0.60383516  0.61504960  0.04521912     0.17600
H857        H  0.59558775  0.49760225  0.99034896     0.17600
N858        N  0.66040279  0.52040690  0.99484527    -0.89100
H859        H  0.54301009  0.59462495  0.07069768     0.35000
H860        H  0.51656764  0.57595220  0.04117315     0.40100
H861        H  0.65703034  0.51489253  0.96819207     0.39700
H862        H  0.66182291  0.49667125  0.00820539     0.34600
C863        C  0.06577650  0.46852099  0.43166089    -0.27100
C864        C  0.03295643  0.48478354  0.43435805    -0.15200
C865        C  0.01674391  0.49662606  0.40304157     0.35400
C866        C  0.03429054  0.49332228  0.37076310    -0.26600
C867        C  0.06786932  0.47838734  0.36811910    -0.15800
C868        C  0.08315412  0.46509022  0.39918734     0.36500
N869        N  0.11676195  0.44872825  0.39831032    -0.90100
H870        H  0.07855857  0.45919940  0.45515077     0.17600
H871        H  0.02169049  0.50355499  0.34753279     0.17600
N872        N  0.98313755  0.51350080  0.40289748    -0.89100
H873        H  0.11400226  0.42324301  0.40764150     0.35000
H874        H  0.13318023  0.46231292  0.41564341     0.40100
H875        H  0.97275605  0.51603084  0.42798200     0.39700
H876        H  0.96595585  0.49753012  0.38865686     0.34600
C877        C  0.60277441  0.41633782  0.45907079    -0.27100
C878        C  0.63107782  0.42860872  0.47970189    -0.15200
C879        C  0.62475607  0.45806403  0.50189763     0.35400
C880        C  0.59163703  0.47364768  0.50306826    -0.26600
C881        C  0.56369672  0.46170917  0.48245360    -0.15800
C882        C  0.56936884  0.43251320  0.46003269     0.36500
N883        N  0.54207627  0.41851710  0.43808178    -0.90100
H884        H  0.60650627  0.39381439  0.44213812     0.17600
H885        H  0.58754258  0.49555307  0.52077033     0.17600
N886        N  0.65098272  0.47254875  0.52462841    -0.89100
H887        H  0.53663498  0.39323467  0.44677113     0.35000
H888        H  0.51903835  0.43291483  0.44055695     0.40100
H889        H  0.67180885  0.48156869  0.50956455     0.39700
H890        H  0.65952209  0.45326266  0.54193806     0.34600
C891        C  0.89126856  0.42470512  0.54246120    -0.27100
C892        C  0.86316460  0.43699409  0.52179505    -0.15200
C893        C  0.87006979  0.46528587  0.49880732     0.35400
C894        C  0.90378060  0.47976119  0.49695512    -0.26600
C895        C  0.93198510  0.46627450  0.51621319    -0.15800
C896        C  0.92551040  0.43822405  0.53934749     0.36500
N897        N  0.95302549  0.42183843  0.55899359    -0.90100
H898        H  0.88702777  0.40315995  0.56020027     0.17600
H899        H  0.90835204  0.50116630  0.47908537     0.17600
N900        N  0.84401348  0.47918610  0.47572943    -0.89100
H901        H  0.94834497  0.42669815  0.58552695     0.35000
H902        H  0.97734315  0.43259348  0.55320330     0.40100
H903        H  0.82307875  0.48859116  0.49048711     0.39700
H904        H  0.83539985  0.45932264  0.45883781     0.34600
C905        C  0.75228686  0.79357362  0.62322700    -0.27100
C906        C  0.77673453  0.82056253  0.61779460    -0.15200
C907        C  0.79963822  0.82900327  0.64606020     0.35400
C908        C  0.79491443  0.81338916  0.67923786    -0.26600
C909        C  0.76886313  0.78798263  0.68493439    -0.15800
C910        C  0.74851808  0.77690748  0.65571881     0.36500
N911        N  0.72405340  0.74839185  0.65764819    -0.90100
H912        H  0.73520047  0.78541004  0.60198947     0.17600
H913        H  0.81181615  0.82124529  0.70065982     0.17600
N914        N  0.82892896  0.85186437  0.64161689    -0.89100
H915        H  0.69902966  0.75831485  0.65289290     0.35000
H916        H  0.72368703  0.73696152  0.68230227     0.40100
H917        H  0.82013321  0.87672748  0.63503467     0.39700
H918        H  0.84413545  0.84215812  0.62103729     0.34600
C919        C  0.71352966  0.68684334  0.81812255    -0.27100
C920        C  0.73370213  0.71747342  0.81577941    -0.15200
C921        C  0.74888182  0.73120345  0.84665784     0.35400
C922        C  0.74525384  0.71322232  0.87860041    -0.26600
C923        C  0.72645406  0.68151408  0.88110226    -0.15800
C924        C  0.70938792  0.66910533  0.85022570     0.36500
N925        N  0.68769268  0.63865131  0.85040695    -0.90100
H926        H  0.70141405  0.67623631  0.79467070     0.17600
H927        H  0.75821171  0.72379874  0.90161384     0.17600
N928        N  0.76836346  0.76335149  0.84538995    -0.89100
H929        H  0.66826866  0.64217120  0.86927360     0.35000
H930        H  0.70302630  0.61719809  0.85714581     0.40100
H931        H  0.79047774  0.75900698  0.83001697     0.39700
H932        H  0.77744112  0.77037897  0.87032184     0.34600
C933        C  0.70890236  0.18736891  0.17924500    -0.27100
C934        C  0.73549673  0.21203481  0.18585115    -0.15200
C935        C  0.75662219  0.22244063  0.15764219     0.35400
C936        C  0.75230282  0.20704309  0.12428947    -0.26600
C937        C  0.72683480  0.18117237  0.11765660    -0.15800
C938        C  0.70394339  0.17241540  0.14555873     0.36500
N939        N  0.67459945  0.14965765  0.14030477    -0.90100
H940        H  0.69185607  0.17963550  0.20037332     0.17600
H941        H  0.76989361  0.21487038  0.10363140     0.17600
N942        N  0.78286208  0.24874478  0.16282947    -0.89100
H943        H  0.68334602  0.12483606  0.13311988     0.35000
H944        H  0.65932571  0.15965672  0.11991547     0.40100
H945        H  0.77754538  0.26929837  0.14572324     0.39700
H946        H  0.80698432  0.23813129  0.15567001     0.34600
C947        C  0.79322846  0.32654736  0.35901163    -0.27100
C948        C  0.77264006  0.31401932  0.38690123    -0.15200
C949        C  0.75127954  0.28424698  0.37996819     0.35400
C950        C  0.74980106  0.26944053  0.34622845    -0.26600
C951        C  0.76873102  0.28310138  0.31810244    -0.15800
C952        C  0.79140822  0.31177363  0.32487669     0.36500
N953        N  0.81271364  0.32675504  0.29797715    -0.90100
H954        H  0.81019894  0.34885486  0.36342831     0.17600
H955        H  0.73263691  0.24729987  0.34166494     0.17600
N956        N  0.72965490  0.26881374  0.40616409    -0.89100
H957        H  0.80414521  0.35239928  0.29407828     0.35000
H958        H  0.80951042  0.31352748  0.27418434     0.40100
H959        H  0.71154467  0.28735616  0.41486798     0.39700
H960        H  0.74545488  0.26074302  0.42698823     0.34600
C961        C  0.71930168  0.47626534  0.40378855    -0.27100
C962        C  0.72880836  0.44129126  0.39900755    -0.15200
C963        C  0.73101770  0.42658269  0.36523288     0.35400
C964        C  0.71914561  0.44560908  0.33709044    -0.26600
C965        C  0.70398479  0.47803969  0.34267235    -0.15800
C966        C  0.70638601  0.49489204  0.37547776     0.36500
N967        N  0.69402651  0.52981218  0.38092329    -0.90100
H968        H  0.71894527  0.48792854  0.42973814     0.17600
H969        H  0.71855215  0.43349996  0.31156265     0.17600
N970        N  0.74361161  0.39175807  0.35960015    -0.89100
H971        H  0.66745270  0.53046721  0.37495096     0.35000
H972        H  0.70705769  0.54617110  0.36346570     0.40100
H973        H  0.76431085  0.39304319  0.34189261     0.39700
H974        H  0.72360626  0.37702986  0.34792837     0.34600
C975        C  0.71536538  0.52729014  0.09183069    -0.27100
C976        C  0.73136059  0.55914544  0.09977494    -0.15200
C977        C  0.73690531  0.56975501  0.13465738     0.35400
C978        C  0.72286464  0.54995841  0.16136543    -0.26600
C979        C  0.70222616  0.52109305  0.15306841    -0.15800
C980        C  0.69996039  0.50833368  0.11841615     0.36500
N981        N  0.68001941  0.47788982  0.10936564    -0.90100
H982        H  0.71172443  0.51906287  0.06482759     0.17600
H983        H  0.72500647  0.55923816  0.18812026     0.17600
N984        N  0.75508403  0.60151296  0.14283698    -0.89100
H985        H  0.65391481  0.48275837  0.11538587     0.35000
H986        H  0.68892355  0.45707980  0.12460851     0.40100
H987        H  0.77621155  0.59536827  0.15912980     0.39700
H988        H  0.73818432  0.61779856  0.15692648     0.34600
C989        C  0.58312537  0.45922048  0.10343791    -0.27100
C990        C  0.57007661  0.47860071  0.13208000    -0.15200
C991        C  0.54096682  0.50069920  0.12600603     0.35400
C992        C  0.52658668  0.50373494  0.09217138    -0.26600
C993        C  0.54026775  0.48531939  0.06348252    -0.15800
C994        C  0.56887836  0.46240548  0.06936601     0.36500
N995        N  0.58426711  0.44209011  0.04168154    -0.90100
H996        H  0.60511262  0.44181248  0.10732506     0.17600
H997        H  0.50449344  0.52103170  0.08819629     0.17600
N998        N  0.52611404  0.52087585  0.15393288    -0.89100
H999        H  0.61024324  0.45016059  0.03918551     0.35000
H1000       H  0.57216863  0.44711052  0.01774516     0.40100
H1001       H  0.49974912  0.51403882  0.15608438     0.39700
H1002       H  0.52748253  0.54729925  0.14719929     0.34600
C1003       C  0.58707215  0.53505697  0.39629577    -0.27100
C1004       C  0.57026624  0.52318062  0.36546463    -0.15200
C1005       C  0.53605118  0.50924293  0.36905944     0.35400
C1006       C  0.52030696  0.50668589  0.40241680    -0.26600
C1007       C  0.53778994  0.51703652  0.43324169    -0.15800
C1008       C  0.57153135  0.53173656  0.42978734     0.36500
N1009       N  0.59053743  0.54304372  0.46013684    -0.90100
H1010       H  0.61294806  0.54626219  0.39470660     0.17600
H1011       H  0.49438083  0.49543719  0.40433306     0.17600
N1012       N  0.51714965  0.49686077  0.33899194    -0.89100
H1013       H  0.59702529  0.56934260  0.45671337     0.35000
H1014       H  0.61400980  0.52907048  0.46093431     0.40100
H1015       H  0.49361491  0.51067258  0.33747771     0.39700
H1016       H  0.51124826  0.47045471  0.34277839     0.34600
C1017       C  0.66832140  0.35256784  0.28636208    -0.27100
C1018       C  0.68436455  0.38203454  0.27101595    -0.15200
C1019       C  0.71761765  0.37653842  0.25504036     0.35400
C1020       C  0.73295360  0.34303195  0.25438038    -0.26600
C1021       C  0.71634247  0.31363699  0.26849276    -0.15800
C1022       C  0.68376561  0.31867633  0.28513027     0.36500
N1023       N  0.66598606  0.28923932  0.29993342    -0.90100
H1024       H  0.64308900  0.35573311  0.29869608     0.17600
H1025       H  0.75770950  0.33962072  0.24112167     0.17600
N1026       N  0.73631773  0.40397769  0.23795173    -0.89100
H1027       H  0.64200924  0.29695705  0.31046511     0.35000
H1028       H  0.68112246  0.28024184  0.32082674     0.40100
H1029       H  0.74121041  0.42420694  0.25581176     0.39700
H1030       H  0.72128909  0.41322690  0.21706185     0.34600
C1031       C  0.70941863  0.80930334  0.32487343    -0.27100
C1032       C  0.73549986  0.78401357  0.31879279    -0.15200
C1033       C  0.75575491  0.77275570  0.34790251     0.35400
C1034       C  0.75162859  0.78904447  0.38086667    -0.26600
C1035       C  0.72682550  0.81563990  0.38670754    -0.15800
C1036       C  0.70454067  0.82460032  0.35846456     0.36500
N1037       N  0.67641322  0.84868216  0.36385527    -0.90100
H1038       H  0.69279097  0.81738074  0.30337427     0.17600
H1039       H  0.76864417  0.78099760  0.40208616     0.17600
N1040       N  0.78094886  0.74494457  0.34520629    -0.89100
H1041       H  0.65303433  0.83557419  0.35821243     0.35000
H1042       H  0.67892308  0.86894528  0.34585024     0.40100
H1043       H  0.78110111  0.73361571  0.32030717     0.39700
H1044       H  0.77315177  0.72513787  0.36221598     0.34600
C1045       C  0.74975284  0.73276507  0.15534036    -0.27100
C1046       C  0.76639797  0.71696336  0.18397143    -0.15200
C1047       C  0.78806083  0.68787035  0.17749206     0.35400
C1048       C  0.79167121  0.67448696  0.14304516    -0.26600
C1049       C  0.77320644  0.68883535  0.11443209    -0.15800
C1050       C  0.75261548  0.71920506  0.12110160     0.36500
N1051       N  0.73343387  0.73661263  0.09406630    -0.90100
H1052       H  0.73351267  0.75556983  0.15979879     0.17600
H1053       H  0.80816162  0.65182234  0.13896241     0.17600
N1054       N  0.80597797  0.67137222  0.20587981    -0.89100
H1055       H  0.71486170  0.71939403  0.08357218     0.35000
H1056       H  0.75081134  0.74432587  0.07456213     0.40100
H1057       H  0.83272631  0.67168841  0.20040836     0.39700
H1058       H  0.79795150  0.64525203  0.20667633     0.34600
C1059       C  0.73042790  0.65650233  0.24893794    -0.27100
C1060       C  0.71484269  0.68543160  0.23281699    -0.15200
C1061       C  0.68449610  0.67967525  0.21207898     0.35400
C1062       C  0.67034906  0.64550507  0.20898877    -0.26600
C1063       C  0.68485536  0.61667085  0.22689247    -0.15800
C1064       C  0.71586170  0.62283176  0.24682918     0.36500
N1065       N  0.73286249  0.59591860  0.26646012    -0.90100
H1066       H  0.75382657  0.66038168  0.26461651     0.17600
H1067       H  0.64709580  0.64176015  0.19312000     0.17600
N1068       N  0.66724898  0.70764427  0.19396145    -0.89100
H1069       H  0.74009249  0.57568843  0.24946118     0.35000
H1070       H  0.71566171  0.58657355  0.28540386     0.40100
H1071       H  0.68014737  0.73141782  0.19790607     0.39700
H1072       H  0.64234103  0.71042291  0.20477204     0.34600
C1073       C  0.19056437  0.01011584  0.62035746    -0.27100
C1074       C  0.20075994  0.02115153  0.65385629    -0.15200
C1075       C  0.23001556  0.04308785  0.65876854     0.35400
C1076       C  0.24461391  0.05823110  0.62939120    -0.26600
C1077       C  0.23104571  0.05062705  0.59617344    -0.15800
C1078       C  0.20605647  0.02444304  0.59105145     0.36500
N1079       N  0.19437525  0.01501257  0.55650187    -0.90100
H1080       H  0.16861305  0.99254404  0.61711756     0.17600
H1081       H  0.26485715  0.07787823  0.63263041     0.17600
N1082       N  0.24405771  0.05227033  0.69257007    -0.89100
H1083       H  0.17497757  0.99579160  0.55772091     0.35000
H1084       H  0.21554980  0.00376637  0.54339997     0.40100
H1085       H  0.23221406  0.03836580  0.71262454     0.39700
H1086       H  0.23918023  0.07883208  0.69692703     0.34600
C1087       C  0.50384717  0.37734026  0.20229573    -0.27100
C1088       C  0.51822556  0.34422980  0.20767168    -0.15200
C1089       C  0.54499445  0.33936063  0.23215430     0.35400
C1090       C  0.56262043  0.36865081  0.24471230    -0.26600
C1091       C  0.55236484  0.40192423  0.23364035    -0.15800
C1092       C  0.52066007  0.40665658  0.21560721     0.36500
N1093       N  0.50670170  0.44050825  0.20807097    -0.90100
H1094       H  0.48176607  0.38057236  0.18487741     0.17600
H1095       H  0.58584374  0.36532316  0.26073138     0.17600
N1096       N  0.55567269  0.30506421  0.24236886    -0.89100
H1097       H  0.52470997  0.45408971  0.19298062     0.35000
H1098       H  0.50324212  0.45394005  0.23173190     0.40100
H1099       H  0.55182506  0.30301001  0.26934687     0.39700
H1100       H  0.58252594  0.30301282  0.23809777     0.34600
C1101       C  0.59028632  0.20845489  0.02838743    -0.27100
C1102       C  0.59824711  0.23059955  0.05637635    -0.15200
C1103       C  0.63305927  0.23895265  0.06518935     0.35400
C1104       C  0.65990037  0.22176791  0.04773987    -0.26600
C1105       C  0.65169377  0.19621157  0.02290627    -0.15800
C1106       C  0.61711817  0.19059840  0.01175224     0.36500
N1107       N  0.60918845  0.16513813  0.98526297    -0.90100
H1108       H  0.56333028  0.20230263  0.02192355     0.17600
H1109       H  0.68682891  0.22584660  0.05575689     0.17600
N1110       N  0.64069678  0.26269440  0.09354959    -0.89100
H1111       H  0.59569749  0.17770724  0.96508132     0.35000
H1112       H  0.59243889  0.14653502  0.99608932     0.40100
H1113       H  0.63166928  0.28739600  0.08623258     0.39700
H1114       H  0.66769332  0.26498784  0.09738780     0.34600
C1115       C  0.46659397  0.43151258  0.06662971    -0.27100
C1116       C  0.48785263  0.43440411  0.03678883    -0.15200
C1117       C  0.50385574  0.40343724  0.02384986     0.35400
C1118       C  0.50064558  0.37181838  0.04237007    -0.26600
C1119       C  0.48020454  0.36877202  0.07286046    -0.15800
C1120       C  0.46191151  0.39925620  0.08407843     0.36500
N1121       N  0.43780260  0.39835911  0.11255452    -0.90100
H1122       H  0.45343272  0.45456811  0.07652541     0.17600
H1123       H  0.51444621  0.34914269  0.03238835     0.17600
N1124       N  0.52386007  0.40284809  0.99205802    -0.89100
H1125       H  0.45135404  0.39177283  0.13529250     0.35000
H1126       H  0.41905463  0.37912390  0.10720961     0.40100
H1127       H  0.52444100  0.42721273  0.98003434     0.39700
H1128       H  0.51114894  0.38596967  0.97448951     0.34600
C1129       C  0.64404834  0.29054525  0.17705786    -0.27100
C1130       C  0.61665049  0.26818465  0.18749120    -0.15200
C1131       C  0.62422822  0.24339962  0.21414971     0.35400
C1132       C  0.65801794  0.24116187  0.22855467    -0.26600
C1133       C  0.68540374  0.26270141  0.21737513    -0.15800
C1134       C  0.67817544  0.28805547  0.19164836     0.36500
N1135       N  0.70545954  0.31108341  0.18033339    -0.90100
H1136       H  0.63898169  0.30977908  0.15698975     0.17600
H1137       H  0.66316946  0.22177198  0.24849771     0.17600
N1138       N  0.59862635  0.21924827  0.22668728    -0.89100
H1139       H  0.69592640  0.32854197  0.16163604     0.35000
H1140       H  0.72435198  0.29582669  0.16787299     0.40100
H1141       H  0.58961191  0.20397551  0.20571440     0.39700
H1142       H  0.57787154  0.23324831  0.23761732     0.34600
C1143       C  0.62967466  0.03511702  0.99818720    -0.27100
C1144       C  0.63418776  0.06496717  0.97730554    -0.15200
C1145       C  0.60452328  0.07764193  0.95884467     0.35400
C1146       C  0.57110558  0.06249615  0.96434442    -0.26600
C1147       C  0.56656677  0.03365965  0.98647770    -0.15800
C1148       C  0.59677334  0.01914146  0.00260515     0.36500
N1149       N  0.59520973  0.98860842  0.02432397    -0.90100
H1150       H  0.65187686  0.02436528  0.01215091     0.17600
H1151       H  0.54843343  0.07322754  0.95121104     0.17600
N1152       N  0.60829381  0.10582319  0.93449533    -0.89100
H1153       H  0.60970468  0.96893066  0.01199078     0.35000
H1154       H  0.56982892  0.97906120  0.02663028     0.40100
H1155       H  0.62411432  0.09686090  0.91407194     0.39700
H1156       H  0.58414453  0.11223990  0.92333772     0.34600
C1157       C  0.49962806  0.09370481  0.02258459    -0.27100
C1158       C  0.51611984  0.06478660  0.03798054    -0.15200
C1159       C  0.53640903  0.07078602  0.06867085     0.35400
C1160       C  0.53914501  0.10504283  0.08295263    -0.26600
C1161       C  0.52110125  0.13387024  0.06857901    -0.15800
C1162       C  0.50142784  0.12754124  0.03737932     0.36500
N1163       N  0.48206447  0.15456606  0.02025219    -0.90100
H1164       H  0.48408017  0.08971447  0.99908782     0.17600
H1165       H  0.55488944  0.10885196  0.10630235     0.17600
N1166       N  0.55439272  0.04295490  0.08626996    -0.89100
H1167       H  0.49924970  0.17459895  0.01335857     0.35000
H1168       H  0.46310842  0.16420981  0.03739667     0.40100
H1169       H  0.55019068  0.01900403  0.07373269     0.39700
H1170       H  0.54358405  0.04076032  0.11124832     0.34600
C1171       C  0.72349606  0.03957525  0.84168606    -0.27100
C1172       C  0.69652406  0.01664687  0.84997678    -0.15200
C1173       C  0.69021641  0.00679800  0.88488897     0.35400
C1174       C  0.70849701  0.02339999  0.91149807    -0.26600
C1175       C  0.73128809  0.05043278  0.90324611    -0.15800
C1176       C  0.74080504  0.05732976  0.86847255     0.36500
N1177       N  0.76572327  0.08428487  0.86072317    -0.90100
H1178       H  0.72829690  0.04642598  0.81463725     0.17600
H1179       H  0.70179476  0.01818234  0.93852135     0.17600
N1180       N  0.66378716  0.98204897  0.89405607    -0.89100
H1181       H  0.76888791  0.08673064  0.83366428     0.35000
H1182       H  0.78986832  0.07640346  0.87085741     0.40100
H1183       H  0.66831095  0.95890614  0.88007396     0.39700
H1184       H  0.63948493  0.99213675  0.88684398     0.34600
C1185       C  0.70247287  0.97512774  0.58792924    -0.27100
C1186       C  0.73103773  0.95420623  0.59624084    -0.15200
C1187       C  0.74460263  0.95331131  0.63057818     0.35400
C1188       C  0.72667514  0.97029311  0.65707433    -0.26600
C1189       C  0.69462305  0.98582611  0.64950593    -0.15800
C1190       C  0.68332575  0.99029177  0.61472124     0.36500
N1191       N  0.65121814  0.00790933  0.60688016    -0.90100
H1192       H  0.69270230  0.97638130  0.56130910     0.17600
H1193       H  0.73532639  0.96733320  0.68397291     0.17600
N1194       N  0.77433171  0.93257453  0.63966741    -0.89100
H1195       H  0.63461788  0.99026144  0.59395231     0.35000
H1196       H  0.65673855  0.02825021  0.58961685     0.40100
H1197       H  0.79506646  0.93962696  0.62343557     0.39700
H1198       H  0.76795184  0.90641298  0.63502313     0.34600
C1199       C  0.71137958  0.88184567  0.74723312    -0.27100
C1200       C  0.68265785  0.88601685  0.72432465    -0.15200
C1201       C  0.67264326  0.85661526  0.70374079     0.35400
C1202       C  0.68885648  0.82359653  0.70903162    -0.26600
C1203       C  0.71624664  0.81939384  0.73342071    -0.15800
C1204       C  0.72830529  0.84949293  0.75149759     0.36500
N1205       N  0.75794317  0.84797051  0.77450352    -0.90100
H1206       H  0.72056338  0.90385253  0.76274981     0.17600
H1207       H  0.67981189  0.80116384  0.69414908     0.17600
N1208       N  0.64671252  0.86018047  0.67685778    -0.89100
H1209       H  0.77945351  0.83951171  0.76000270     0.35000
H1210       H  0.75307496  0.82958252  0.79397803     0.40100
H1211       H  0.62733072  0.84141144  0.68097434     0.39700
H1212       H  0.65852491  0.85422174  0.65292389     0.34600
C1213       C  0.53881934  0.00069039  0.87274406    -0.27100
C1214       C  0.56532156  0.97593367  0.86617832    -0.15200
C1215       C  0.57532449  0.95382300  0.89420310     0.35400
C1216       C  0.56045289  0.95854805  0.92801264    -0.26600
C1217       C  0.53476030  0.98413297  0.93456778    -0.15800
C1218       C  0.52340252  0.00490393  0.90598785     0.36500
N1219       N  0.49601763  0.03048457  0.90940188    -0.90100
H1220       H  0.53026939  0.01777281  0.85188290     0.17600
H1221       H  0.56904789  0.94221187  0.94942245     0.17600
N1222       N  0.60059820  0.92665981  0.88837211    -0.89100
H1223       H  0.50691387  0.05508979  0.90482666     0.35000
H1224       H  0.48548421  0.03121384  0.93452950     0.40100
H1225       H  0.58965265  0.90885950  0.87052032     0.39700
H1226       H  0.60527444  0.91284933  0.91144536     0.34600
C1227       C  0.54223281  0.65898350  0.27560325    -0.27100
C1228       C  0.51903950  0.65070483  0.30225198    -0.15200
C1229       C  0.51001099  0.61587257  0.30936650     0.35400
C1230       C  0.52709313  0.58914954  0.29166093    -0.26600
C1231       C  0.55383172  0.59748987  0.26861043    -0.15800
C1232       C  0.56049490  0.63228445  0.25908353     0.36500
N1233       N  0.58753725  0.64053296  0.23472335    -0.90100
H1234       H  0.54899617  0.68599624  0.27040374     0.17600
H1235       H  0.52218740  0.56218489  0.29870723     0.17600
N1236       N  0.48554482  0.60772012  0.33633828    -0.89100
H1237       H  0.60569651  0.65667693  0.24751015     0.35000
H1238       H  0.57639009  0.65481458  0.21427741     0.40100
H1239       H  0.49831636  0.59248696  0.35509832     0.39700
H1240       H  0.46555010  0.59259441  0.32521158     0.34600
C1241       C  0.59269079  0.78939001  0.47558284    -0.27100
C1242       C  0.60075690  0.77149568  0.44475430    -0.15200
C1243       C  0.63561042  0.76497376  0.43526023     0.35400
C1244       C  0.66229717  0.77950278  0.45526035    -0.26600
C1245       C  0.65402995  0.80181325  0.48293797    -0.15800
C1246       C  0.61926508  0.80546518  0.49450764     0.36500
N1247       N  0.61017927  0.82735012  0.52361828    -0.90100
H1248       H  0.56568665  0.79389024  0.48286243     0.17600
H1249       H  0.68912434  0.77646084  0.44681472     0.17600
N1250       N  0.64379883  0.74536227  0.40428804    -0.89100
H1251       H  0.61690945  0.85304981  0.51760672     0.35000
H1252       H  0.62477108  0.81941598  0.54536348     0.40100
H1253       H  0.65958454  0.72426350  0.41148874     0.39700
H1254       H  0.65832879  0.76140299  0.38772631     0.34600
C1255       C  0.50442621  0.62903157  0.45969860    -0.27100
C1256       C  0.47869105  0.63535224  0.43407061    -0.15200
C1257       C  0.45500082  0.60782635  0.42586766     0.35400
C1258       C  0.45991719  0.57439464  0.44036265    -0.26600
C1259       C  0.48694049  0.56770708  0.46443694    -0.15800
C1260       C  0.50845410  0.59607918  0.47536568     0.36500
N1261       N  0.53391074  0.59295947  0.50302553    -0.90100
H1262       H  0.52212735  0.64984499  0.46747886     0.17600
H1263       H  0.44230960  0.55346596  0.43284799     0.17600
N1264       N  0.42482070  0.61323569  0.40422984    -0.89100
H1265       H  0.55839893  0.59904925  0.49282136     0.35000
H1266       H  0.53539193  0.56757793  0.51277625     0.40100
H1267       H  0.43261956  0.61940679  0.37891234     0.39700
H1268       H  0.41054709  0.63417414  0.41458929     0.34600
C1269       C  0.65667300  0.75384364  0.27391276    -0.27100
C1270       C  0.68490352  0.73396563  0.28627574    -0.15200
C1271       C  0.67845537  0.70959974  0.31337638     0.35400
C1272       C  0.64444931  0.70656537  0.32762998    -0.26600
C1273       C  0.61623573  0.72727638  0.31590602    -0.15800
C1274       C  0.62298689  0.75106393  0.28818717     0.36500
N1275       N  0.59667298  0.77394420  0.27456313    -0.90100
H1276       H  0.66107742  0.77256227  0.25320880     0.17600
H1277       H  0.64031588  0.68831950  0.34877828     0.17600
N1278       N  0.70573351  0.68822276  0.32781242    -0.89100
H1279       H  0.58753219  0.79000918  0.29479146     0.35000
H1280       H  0.57617687  0.75889892  0.26431296     0.40100
H1281       H  0.72971021  0.69326409  0.31600362     0.39700
H1282       H  0.69950977  0.66215160  0.32217258     0.34600
C1283       C  0.57333342  0.93804931  0.54270330    -0.27100
C1284       C  0.56667070  0.96407671  0.51764751    -0.15200
C1285       C  0.59532689  0.97682831  0.49822961     0.35400
C1286       C  0.62868751  0.96181895  0.50200703    -0.26600
C1287       C  0.63517362  0.93439910  0.52560610    -0.15800
C1288       C  0.60722022  0.92353742  0.54728251     0.36500
N1289       N  0.61323699  0.89785875  0.57392067    -0.90100
H1290       H  0.55220779  0.92903545  0.55896335     0.17600
H1291       H  0.64961573  0.97139469  0.48564907     0.17600
N1292       N  0.59140192  0.00554873  0.47468268    -0.89100
H1293       H  0.59013572  0.89252670  0.58740261     0.35000
H1294       H  0.63061790  0.90877014  0.59217248     0.40100
H1295       H  0.58270024  0.02714265  0.48908966     0.39700
H1296       H  0.57238770  0.99926124  0.45600572     0.34600
C1297       C  0.42773672  0.05729714  0.45999092    -0.27100
C1298       C  0.43322529  0.03206244  0.48610381    -0.15200
C1299       C  0.40450402  0.02240834  0.50734796     0.35400
C1300       C  0.37198207  0.03884315  0.50278979    -0.26600
C1301       C  0.36646054  0.06479651  0.47742158    -0.15800
C1302       C  0.39468775  0.07349561  0.45520291     0.36500
N1303       N  0.38980603  0.09863390  0.42784903    -0.90100
H1304       H  0.44938493  0.06451819  0.44337839     0.17600
H1305       H  0.35087424  0.03159113  0.52010436     0.17600
N1306       N  0.40733875  0.99661680  0.53449022    -0.89100
H1307       H  0.37175622  0.08811667  0.41002060     0.35000
H1308       H  0.41306411  0.10235019  0.41410310     0.40100
H1309       H  0.43222300  0.98564081  0.53587457     0.39700
H1310       H  0.39018036  0.97618192  0.52820165     0.34600
C1311       C  0.55662034  0.04287014  0.57506890    -0.27100
C1312       C  0.53408468  0.01443623  0.56824639    -0.15200
C1313       C  0.52556534  0.99210529  0.59652264     0.35400
C1314       C  0.54163825  0.99709521  0.62936846    -0.26600
C1315       C  0.56530384  0.02459560  0.63602723    -0.15800
C1316       C  0.57177018  0.04845938  0.60849232     0.36500
N1317       N  0.59270254  0.07911673  0.61381144    -0.90100
H1318       H  0.56271609  0.06086254  0.55425454     0.17600
H1319       H  0.53577365  0.97857776  0.64986933     0.17600
N1320       N  0.50089917  0.96381974  0.59307208    -0.89100
H1321       H  0.61816152  0.07168474  0.62021587     0.35000
H1322       H  0.58225429  0.09336263  0.63476348     0.40100
H1323       H  0.48944952  0.96284897  0.56828235     0.39700
H1324       H  0.48048723  0.96871883  0.61053413     0.34600
C1325       C  0.53649944  0.92991216  0.43401513    -0.27100
C1326       C  0.51724256  0.93220293  0.46522760    -0.15200
C1327       C  0.50377026  0.90083086  0.47929533     0.35400
C1328       C  0.50756769  0.86901556  0.46107269    -0.26600
C1329       C  0.52537503  0.86662616  0.42887536    -0.15800
C1330       C  0.54138093  0.89767515  0.41629265     0.36500
N1331       N  0.56313205  0.89747640  0.38597323    -0.90100
H1332       H  0.54758329  0.95340479  0.42300224     0.17600
H1333       H  0.49573650  0.84590697  0.47222125     0.17600
N1334       N  0.48584789  0.90032016  0.51212493    -0.89100
H1335       H  0.54804290  0.89010043  0.36440490     0.35000
H1336       H  0.58298406  0.87907805  0.38964063     0.40100
H1337       H  0.46476189  0.91745496  0.51114523     0.39700
H1338       H  0.50294205  0.90916439  0.53160303     0.34600
C1339       C  0.49698488  0.87433837  0.29897363    -0.27100
C1340       C  0.48054005  0.84193550  0.29511357    -0.15200
C1341       C  0.45263233  0.83736460  0.27176218     0.35400
C1342       C  0.43703273  0.86708865  0.25795964    -0.26600
C1343       C  0.44960649  0.90029595  0.26739843    -0.15800
C1344       C  0.48141894  0.90402763  0.28548146     0.36500
N1345       N  0.49619257  0.93745817  0.29374955    -0.90100
H1346       H  0.51971529  0.87697315  0.31561471     0.17600
H1347       H  0.41326390  0.86456715  0.24258436     0.17600
N1348       N  0.43856986  0.80319921  0.26477134    -0.89100
H1349       H  0.47809258  0.95128683  0.30870113     0.35000
H1350       H  0.50030916  0.95087119  0.27037917     0.40100
H1351       H  0.45789207  0.78868616  0.25199155     0.39700
H1352       H  0.41732387  0.80475089  0.24752301     0.34600
C1353       C  0.47238463  0.09103263  0.20903625    -0.27100
C1354       C  0.44677333  0.09883928  0.23356334    -0.15200
C1355       C  0.44059166  0.13354028  0.24467171     0.35400
C1356       C  0.45744156  0.16048619  0.22771050    -0.26600
C1357       C  0.47853164  0.15264762  0.19916022    -0.15800
C1358       C  0.48797096  0.11809053  0.19099875     0.36500
N1359       N  0.51128233  0.11048700  0.16279573    -0.90100
H1360       H  0.47727715  0.06420401  0.20105625     0.17600
H1361       H  0.45085695  0.18738407  0.23403536     0.17600
N1362       N  0.41527889  0.14215113  0.27077942    -0.89100
H1363       H  0.49791673  0.09476925  0.14463673     0.35000
H1364       H  0.53219707  0.09597531  0.17274728     0.40100
H1365       H  0.42086359  0.12775060  0.29329204     0.39700
H1366       H  0.39071076  0.13495985  0.26125831     0.34600
C1367       C  0.30794866  0.00256792  0.38017481    -0.27100
C1368       C  0.29916869  0.01418424  0.34663077    -0.15200
C1369       C  0.27058812  0.03616529  0.34106320     0.35400
C1370       C  0.25471813  0.05122100  0.36996826    -0.26600
C1371       C  0.26756519  0.04424044  0.40347314    -0.15800
C1372       C  0.29198780  0.01766602  0.40910618     0.36500
N1373       N  0.30275953  0.00833840  0.44372818    -0.90100
H1374       H  0.32957751  0.98463181  0.38397693     0.17600
H1375       H  0.23510907  0.07113646  0.36611066     0.17600
N1376       N  0.26017801  0.04602082  0.30648384    -0.89100
H1377       H  0.32986448  0.01133104  0.44532423     0.35000
H1378       H  0.29733078  0.98177963  0.44706168     0.40100
H1379       H  0.26166737  0.07325810  0.30494777     0.39700
H1380       H  0.23396065  0.03898245  0.30311112     0.34600
C1381       C  0.47694864  0.99461565  0.09552504    -0.27100
C1382       C  0.46438310  0.01430547  0.06733723    -0.15200
C1383       C  0.43666235  0.03780037  0.07351077     0.35400
C1384       C  0.42194611  0.04090515  0.10743488    -0.26600
C1385       C  0.43409962  0.02063509  0.13582098    -0.15800
C1386       C  0.46242492  0.99730711  0.12917720     0.36500
N1387       N  0.47656777  0.97491305  0.15558623    -0.90100
H1388       H  0.49812560  0.97629248  0.09115811     0.17600
H1389       H  0.40037652  0.05883255  0.11134940     0.17600
N1390       N  0.42289308  0.05804481  0.04527497    -0.89100
H1391       H  0.45682490  0.95839391  0.16459145     0.35000
H1392       H  0.48622854  0.99030702  0.17617767     0.40100
H1393       H  0.42502737  0.08446865  0.05217977     0.39700
H1394       H  0.39633047  0.05208582  0.04260161     0.34600
C1395       C  0.41804030  0.95970298  0.39574459    -0.27100
C1396       C  0.43207948  0.97880156  0.36766954    -0.15200
C1397       C  0.46232190  0.99957940  0.37468178     0.35400
C1398       C  0.47785014  0.99956617  0.40807294    -0.26600
C1399       C  0.46346562  0.98106784  0.43610515    -0.15800
C1400       C  0.43254610  0.96135972  0.42983574     0.36500
N1401       N  0.41458973  0.94341035  0.45729413    -0.90100
H1402       H  0.39455045  0.94434535  0.39161597     0.17600
H1403       H  0.50070396  0.01578044  0.41268882     0.17600
N1404       N  0.47704392  0.02269781  0.34933207    -0.89100
H1405       H  0.38953901  0.95421841  0.45912683     0.35000
H1406       H  0.42649874  0.94819782  0.48134887     0.40100
H1407       H  0.45803668  0.04076567  0.34170809     0.39700
H1408       H  0.48542852  0.00829383  0.32763960     0.34600
C1409       C  0.62736628  0.25523825  0.55725248    -0.27100
C1410       C  0.59428966  0.26802098  0.54834118    -0.15200
C1411       C  0.58985535  0.29200728  0.52127279     0.35400
C1412       C  0.61940493  0.30771106  0.50748522    -0.26600
C1413       C  0.65243738  0.29896167  0.52067865    -0.15800
C1414       C  0.65690123  0.27072700  0.54326840     0.36500
N1415       N  0.69095847  0.26012394  0.55453717    -0.90100
H1416       H  0.63030823  0.23585593  0.57765449     0.17600
H1417       H  0.61641721  0.32891351  0.48900107     0.17600
N1418       N  0.55570003  0.30258326  0.51012183    -0.89100
H1419       H  0.69407353  0.23374702  0.54787962     0.35000
H1420       H  0.69182254  0.26209974  0.58183457     0.40100
H1421       H  0.55345085  0.29707480  0.48336156     0.39700
H1422       H  0.55387228  0.32968617  0.51328870     0.34600
C1423       C  0.52435123  0.09135899  0.71049019    -0.27100
C1424       C  0.55209174  0.10008455  0.73260370    -0.15200
C1425       C  0.56095662  0.13516893  0.73955678     0.35400
C1426       C  0.54407158  0.16127431  0.72087011    -0.26600
C1427       C  0.51978221  0.15214332  0.69516200    -0.15800
C1428       C  0.50850333  0.11726557  0.69092302     0.36500
N1429       N  0.48276865  0.10729523  0.66547074    -0.90100
H1430       H  0.51780758  0.06418512  0.70540043     0.17600
H1431       H  0.55204565  0.18824988  0.72406309     0.17600
N1432       N  0.58880299  0.14370544  0.76350473    -0.89100
H1433       H  0.49245377  0.11309724  0.64068646     0.35000
H1434       H  0.46021218  0.12204494  0.66996781     0.40100
H1435       H  0.58093208  0.13591704  0.78843808     0.39700
H1436       H  0.59267862  0.17075490  0.76474138     0.34600
C1437       C  0.40909641  0.20696421  0.52051725    -0.27100
C1438       C  0.40136965  0.23041773  0.54740831    -0.15200
C1439       C  0.36690821  0.24057991  0.55461366     0.35400
C1440       C  0.33978388  0.22380548  0.53731051    -0.26600
C1441       C  0.34743641  0.19646163  0.51448585    -0.15800
C1442       C  0.38188415  0.18923385  0.50396748     0.36500
N1443       N  0.38891045  0.16203017  0.47885695    -0.90100
H1444       H  0.43599015  0.19974621  0.51528293     0.17600
H1445       H  0.31304502  0.22923004  0.54475675     0.17600
N1446       N  0.35950022  0.26560184  0.58161106    -0.89100
H1447       H  0.41582360  0.15935826  0.47495199     0.35000
H1448       H  0.37816324  0.16987145  0.45495816     0.40100
H1449       H  0.34406423  0.25340279  0.60047543     0.39700
H1450       H  0.34482095  0.28577997  0.57052162     0.34600
C1451       C  0.49185623  0.37826159  0.68920418    -0.27100
C1452       C  0.48022358  0.34500746  0.69876485    -0.15200
C1453       C  0.45819168  0.34037434  0.72775194     0.35400
C1454       C  0.44317904  0.36991363  0.74252051    -0.26600
C1455       C  0.45070559  0.40292063  0.72897896    -0.15800
C1456       C  0.47721564  0.40776796  0.70444316     0.36500
N1457       N  0.48636248  0.44215378  0.69265561    -0.90100
H1458       H  0.50963778  0.38116425  0.66746557     0.17600
H1459       H  0.42332817  0.36692980  0.76246526     0.17600
N1460       N  0.44868923  0.30666257  0.74112256    -0.89100
H1461       H  0.50554508  0.44077603  0.67327372     0.35000
H1462       H  0.49745915  0.45558511  0.71388433     0.40100
H1463       H  0.46254589  0.28657926  0.72892581     0.39700
H1464       H  0.42212323  0.30270780  0.73593459     0.34600
C1465       C  0.49525303  0.37226814  0.53935552    -0.27100
C1466       C  0.51902393  0.36715414  0.56720538    -0.15200
C1467       C  0.54066761  0.39593689  0.57691052     0.35400
C1468       C  0.53703227  0.42853214  0.55995724    -0.26600
C1469       C  0.51252121  0.43361905  0.53288216    -0.15800
C1470       C  0.49184996  0.40457256  0.52211017     0.36500
N1471       N  0.46639616  0.40688893  0.49435030    -0.90100
H1472       H  0.47837600  0.35097348  0.53106183     0.17600
H1473       H  0.55334965  0.45024244  0.56826680     0.17600
N1474       N  0.56708778  0.39289188  0.60335874    -0.89100
H1475       H  0.47393895  0.38953277  0.47453183     0.35000
H1476       H  0.46583648  0.43166419  0.48313273     0.40100
H1477       H  0.58360145  0.37215529  0.59659033     0.39700
H1478       H  0.55520053  0.38744323  0.62721200     0.34600
C1479       C  0.45991527  0.07008955  0.56275870    -0.27100
C1480       C  0.48345118  0.06437205  0.53521592    -0.15200
C1481       C  0.50031202  0.09366119  0.52042865     0.35400
C1482       C  0.49592056  0.12709977  0.53517747    -0.26600
C1483       C  0.47400179  0.13281829  0.56414038    -0.15800
C1484       C  0.45423554  0.10409606  0.57665545     0.36500
N1485       N  0.42851879  0.10946973  0.60343119    -0.90100
H1486       H  0.44587168  0.04800417  0.57335761     0.17600
H1487       H  0.51067366  0.14862913  0.52435967     0.17600
N1488       N  0.52243209  0.09011638  0.49046579    -0.89100
H1489       H  0.41635338  0.08586287  0.60973445     0.35000
H1490       H  0.40909975  0.12565712  0.59303250     0.40100
H1491       H  0.50776237  0.07926379  0.46994636     0.39700
H1492       H  0.54264806  0.07287296  0.49651570     0.34600
C1493       C  0.25136562  0.22927240  0.65292619    -0.27100
C1494       C  0.26390228  0.21251000  0.68302576    -0.15200
C1495       C  0.28065670  0.17989290  0.67883156     0.35400
C1496       C  0.28434231  0.16475468  0.64505814    -0.26600
C1497       C  0.27108932  0.18111855  0.61471169    -0.15800
C1498       C  0.25421180  0.21410176  0.61935657     0.36500
N1499       N  0.23867124  0.23274172  0.59086487    -0.90100
H1500       H  0.23827406  0.25427550  0.65566226     0.17600
H1501       H  0.29699157  0.13950875  0.64279452     0.17600
N1502       N  0.29380111  0.16180321  0.70876225    -0.89100
H1503       H  0.21860983  0.21757165  0.57995212     0.35000
H1504       H  0.25774155  0.23765120  0.57206649     0.40100
H1505       H  0.32056496  0.15772314  0.70516270     0.39700
H1506       H  0.28170822  0.13729745  0.70956545     0.34600
C1507       C  0.20704339  0.12423582  0.75228543    -0.27100
C1508       C  0.18013446  0.11818956  0.72773768    -0.15200
C1509       C  0.17030384  0.14621259  0.70555203     0.35400
C1510       C  0.18638283  0.17927805  0.70945043    -0.26600
C1511       C  0.21246931  0.18527133  0.73485283    -0.15800
C1512       C  0.22331270  0.15689472  0.75603737     0.36500
N1513       N  0.25148262  0.15968234  0.78099599    -0.90100
H1514       H  0.21554539  0.10333772  0.76934334     0.17600
H1515       H  0.17840259  0.20050283  0.69255880     0.17600
N1516       N  0.14480236  0.14182296  0.67832518    -0.89100
H1517       H  0.24128397  0.15553765  0.80594245     0.35000
H1518       H  0.26289397  0.18440272  0.78109948     0.40100
H1519       H  0.12074168  0.13580051  0.68955254     0.39700
H1520       H  0.15258037  0.12100958  0.66225861     0.34600
C1521       C  0.33276663  0.35487327  0.78400972    -0.27100
C1522       C  0.31835471  0.38373576  0.76617399    -0.15200
C1523       C  0.28737196  0.37786853  0.74610885     0.35400
C1524       C  0.27188765  0.34458425  0.74500218    -0.26600
C1525       C  0.28659993  0.31588389  0.76230699    -0.15800
C1526       C  0.31761248  0.32118733  0.78210891     0.36500
N1527       N  0.33453811  0.29324476  0.80052803    -0.90100
H1528       H  0.35657747  0.35824288  0.79913487     0.17600
H1529       H  0.24844426  0.34078176  0.72935883     0.17600
N1530       N  0.27148876  0.40455058  0.72524342    -0.89100
H1531       H  0.35899845  0.28935671  0.78903820     0.35000
H1532       H  0.32081239  0.26984569  0.79769972     0.40100
H1533       H  0.28948028  0.41303211  0.70663069     0.39700
H1534       H  0.26418690  0.42545455  0.74133126     0.34600
C1535       C  0.32092026  0.28972554  0.68711397    -0.27100
C1536       C  0.31491652  0.26356911  0.71210202    -0.15200
C1537       C  0.34330023  0.24170878  0.72185873     0.35400
C1538       C  0.37578435  0.24528990  0.70521080    -0.26600
C1539       C  0.38168772  0.27063948  0.67938805    -0.15800
C1540       C  0.35396106  0.29364898  0.67103920     0.36500
N1541       N  0.35931949  0.32148632  0.64679117    -0.90100
H1542       H  0.29978993  0.30715169  0.67992868     0.17600
H1543       H  0.39658806  0.22746061  0.71238301     0.17600
N1544       N  0.34032859  0.21536593  0.74840626    -0.89100
H1545       H  0.35476074  0.34509677  0.65996901     0.35000
H1546       H  0.34057316  0.31919513  0.62692178     0.40100
H1547       H  0.31569307  0.21521488  0.75990878     0.39700
H1548       H  0.35805107  0.22164280  0.76840494     0.34600
C1549       C  0.25969380  0.44459588  0.87211659    -0.27100
C1550       C  0.27479419  0.45137905  0.90491603    -0.15200
C1551       C  0.30064231  0.47696793  0.90898012     0.35400
C1552       C  0.31429290  0.49234607  0.87916068    -0.26600
C1553       C  0.30266237  0.48164146  0.84595483    -0.15800
C1554       C  0.27379930  0.45949305  0.84223208     0.36500
N1555       N  0.26112354  0.44948472  0.80832245    -0.90100
H1556       H  0.23923217  0.42518232  0.86942724     0.17600
H1557       H  0.33647401  0.50981981  0.88173440     0.17600
N1558       N  0.31506441  0.48513480  0.94268923    -0.89100
H1559       H  0.23467689  0.45622283  0.80685465     0.35000
H1560       H  0.26284121  0.42225963  0.80627070     0.40100
H1561       H  0.31120063  0.51182012  0.94737454     0.39700
H1562       H  0.34202877  0.48098144  0.94146806     0.34600
C1563       C  0.20243006  0.49250525  0.12830414    -0.27100
C1564       C  0.20443488  0.47512258  0.16019439    -0.15200
C1565       C  0.22632539  0.44617378  0.16458447     0.35400
C1566       C  0.24045246  0.43075282  0.13477268    -0.26600
C1567       C  0.23295699  0.44470748  0.10174376    -0.15800
C1568       C  0.21626283  0.47719607  0.09858487     0.36500
N1569       N  0.20934853  0.49290295  0.06545480    -0.90100
H1570       H  0.18681411  0.51590156  0.12588711     0.17600
H1571       H  0.25476115  0.40638246  0.13694297     0.17600
N1572       N  0.23195882  0.43136640  0.19855826    -0.89100
H1573       H  0.19370575  0.47565766  0.05117925     0.35000
H1574       H  0.23306630  0.49615874  0.05238752     0.40100
H1575       H  0.24509038  0.45003900  0.21381648     0.39700
H1576       H  0.24839907  0.40957635  0.19686076     0.34600
C1577       C  0.37869993  0.30709536  0.00750668    -0.27100
C1578       C  0.34520596  0.29725323  0.01818310    -0.15200
C1579       C  0.34050007  0.26996571  0.04182092     0.35400
C1580       C  0.36973429  0.25680983  0.05907363    -0.26600
C1581       C  0.40284849  0.27077488  0.05225996    -0.15800
C1582       C  0.40788320  0.29409690  0.02476114     0.36500
N1583       N  0.44194875  0.30716222  0.01672262    -0.90100
H1584       H  0.38201532  0.32794258  0.98881543     0.17600
H1585       H  0.36628944  0.23798419  0.07978005     0.17600
N1586       N  0.30619977  0.25796486  0.05052750    -0.89100
H1587       H  0.44121613  0.33438991  0.01918422     0.35000
H1588       H  0.44706915  0.30124157  0.99049195     0.40100
H1589       H  0.30289975  0.26114870  0.07750434     0.39700
H1590       H  0.30500589  0.23118245  0.04495789     0.34600
C1591       C  0.09570589  0.48144793  0.99827111    -0.27100
C1592       C  0.06626222  0.46545139  0.01296718    -0.15200
C1593       C  0.07089474  0.43353005  0.03053210     0.35400
C1594       C  0.10459063  0.41839878  0.03328257    -0.26600
C1595       C  0.13426154  0.43389875  0.01780760    -0.15800
C1596       C  0.12901272  0.46587318  0.99946477     0.36500
N1597       N  0.15617187  0.48241262  0.97986879    -0.90100
H1598       H  0.09245510  0.50577210  0.98421836     0.17600
H1599       H  0.10726483  0.39375617  0.04684537     0.17600
N1600       N  0.04135220  0.41609226  0.04519489    -0.89100
H1601       H  0.16519457  0.46494317  0.96079067     0.35000
H1602       H  0.17665186  0.48948272  0.99658097     0.40100
H1603       H  0.04603917  0.41288756  0.07196035     0.39700
H1604       H  0.03961663  0.39124293  0.03370409     0.34600
C1605       C  0.43032603  0.43583486  0.96219853    -0.27100
C1606       C  0.43602307  0.46299118  0.98654786    -0.15200
C1607       C  0.40763420  0.47383284  0.00781327     0.35400
C1608       C  0.37529343  0.45644990  0.00524014    -0.26600
C1609       C  0.36957032  0.42852103  0.98165631    -0.15800
C1610       C  0.39763389  0.41884593  0.95925882     0.36500
N1611       N  0.39369285  0.39258328  0.93264291    -0.90100
H1612       H  0.45157281  0.42759728  0.94541162     0.17600
H1613       H  0.35437508  0.46493261  0.02232725     0.17600
N1614       N  0.41029510  0.50269450  0.03207642    -0.89100
H1615       H  0.37255575  0.39938377  0.91663292     0.35000
H1616       H  0.38854180  0.36862255  0.94443203     0.40100
H1617       H  0.43492422  0.51440054  0.03177218     0.39700
H1618       H  0.40658040  0.49295489  0.05727900     0.34600
C1619       C  0.21578484  0.31969121  0.81694545    -0.27100
C1620       C  0.23501542  0.28853971  0.81325064    -0.15200
C1621       C  0.25021387  0.27376488  0.84374153     0.35400
C1622       C  0.24699919  0.29091654  0.87622343    -0.26600
C1623       C  0.22885278  0.32269938  0.88002836    -0.15800
C1624       C  0.21243941  0.33671030  0.84986810     0.36500
N1625       N  0.19226663  0.36813259  0.85235930    -0.90100
H1626       H  0.20356032  0.33108052  0.79406426     0.17600
H1627       H  0.25979332  0.27938544  0.89872055     0.17600
N1628       N  0.27000522  0.24181419  0.84290071    -0.89100
H1629       H  0.16676655  0.36237167  0.84419489     0.35000
H1630       H  0.20264481  0.38621449  0.83483052     0.40100
H1631       H  0.27230250  0.23170901  0.81764491     0.39700
H1632       H  0.25633304  0.22328191  0.85744568     0.34600
C1633       C  0.20316333  0.37443959  0.25573400    -0.27100
C1634       C  0.17703511  0.37968339  0.23020964    -0.15200
C1635       C  0.16953875  0.35170458  0.20673688     0.35400
C1636       C  0.18651143  0.31918174  0.21071499    -0.26600
C1637       C  0.21188079  0.31396711  0.23694836    -0.15800
C1638       C  0.22099173  0.34256250  0.25901189     0.36500
N1639       N  0.24795983  0.34034105  0.28534011    -0.90100
H1640       H  0.20991524  0.39542099  0.27375720     0.17600
H1641       H  0.17979430  0.29778687  0.19319976     0.17600
N1642       N  0.14586420  0.35576918  0.17792788    -0.89100
H1643       H  0.26734703  0.35845340  0.27896194     0.35000
H1644       H  0.26017803  0.31596820  0.28544856     0.40100
H1645       H  0.15436161  0.37682720  0.16286441     0.39700
H1646       H  0.12105907  0.36146215  0.18758390     0.34600
C1647       C  0.24393150  0.20921256  0.37891581    -0.27100
C1648       C  0.22498896  0.17773128  0.38190266    -0.15200
C1649       C  0.20685274  0.16539279  0.35159425     0.35400
C1650       C  0.21152076  0.18207142  0.31906356    -0.26600
C1651       C  0.23251694  0.21203164  0.31610342    -0.15800
C1652       C  0.24718058  0.22659817  0.34677928     0.36500
N1653       N  0.26557924  0.25920489  0.34540277    -0.90100
H1654       H  0.25708242  0.22031137  0.40158671     0.17600
H1655       H  0.19861312  0.17160794  0.29596142     0.17600
N1656       N  0.18272462  0.13683927  0.35301639    -0.89100
H1657       H  0.29065859  0.25544379  0.35567762     0.35000
H1658       H  0.25274144  0.27695406  0.36182588     0.40100
H1659       H  0.16410050  0.14243507  0.37219118     0.39700
H1660       H  0.19613050  0.11420085  0.35989530     0.34600
C1661       C  0.31926112  0.21081019  0.18699689    -0.27100
C1662       C  0.31426599  0.23389946  0.21535582    -0.15200
C1663       C  0.34375026  0.25177594  0.22898251     0.35400
C1664       C  0.37645719  0.24886381  0.21209495    -0.26600
C1665       C  0.38138943  0.22731050  0.18237513    -0.15800
C1666       C  0.35234753  0.20678063  0.17097676     0.36500
N1667       N  0.35571120  0.18080051  0.14404775    -0.70900
H1668       H  0.29727680  0.19567220  0.17727488     0.17600
H1669       H  0.39827774  0.26394182  0.22225074     0.17600
N1670       N  0.34075228  0.27192751  0.26078462    -0.89100
H1671       H  0.37580930  0.16368809  0.15111420     0.35000
H1672       H  0.36223627  0.19296596  0.12062141     0.40100
H1673       H  0.32282516  0.29204917  0.25693658     0.39700
H1674       H  0.36461293  0.28369216  0.26731321     0.34600
C1675       C  0.27212610  0.15506839  0.24576292    -0.27100
C1676       C  0.28468141  0.18311414  0.26613129    -0.15200
C1677       C  0.31218473  0.17649577  0.29024534     0.35400
C1678       C  0.32612635  0.14238941  0.29315513    -0.26600
C1679       C  0.31445635  0.11443358  0.27182754    -0.15800
C1680       C  0.28658230  0.12113432  0.24803102     0.36500
N1681       N  0.27378579  0.09399916  0.22505700    -0.90100
H1682       H  0.25106383  0.15991771  0.22734681     0.17600
H1683       H  0.34728435  0.13806201  0.31157554     0.17600
N1684       N  0.32711159  0.20363491  0.31175172    -0.89100
H1685       H  0.25504371  0.10382790  0.20772910     0.35000
H1686       H  0.26085606  0.07559237  0.24038941     0.40100
H1687       H  0.31547154  0.22765405  0.30657165     0.39700
H1688       H  0.35337417  0.20617205  0.30472558     0.34600
C1689       C  0.28630955  0.32850173  0.14524169    -0.27100
C1690       C  0.26651429  0.31540367  0.11671824    -0.15200
C1691       C  0.24400523  0.28650464  0.12338482     0.35400
C1692       C  0.24288845  0.27131580  0.15689557    -0.26600
C1693       C  0.26241116  0.28466815  0.18522478    -0.15800
C1694       C  0.28393984  0.31396552  0.17917389     0.36500
N1695       N  0.30269018  0.32986785  0.20754213    -0.90100
H1696       H  0.30309543  0.35098499  0.14153644     0.17600
H1697       H  0.22546805  0.24941473  0.16120665     0.17600
N1698       N  0.22063359  0.27275665  0.09731438    -0.89100
H1699       H  0.29454705  0.35588572  0.20970125     0.35000
H1700       H  0.32925575  0.32981575  0.20122024     0.40100
H1701       H  0.23516739  0.26356015  0.07608683     0.39700
H1702       H  0.20392092  0.29274101  0.08910141     0.34600
C1703       C  0.84135786  0.27551411  0.46292739    -0.27100
C1704       C  0.84919082  0.30512851  0.48296855    -0.15200
C1705       C  0.88410963  0.31399509  0.49116405     0.35400
C1706       C  0.91083698  0.29538069  0.47567068    -0.26600
C1707       C  0.90273323  0.26955870  0.45119269    -0.15800
C1708       C  0.86832794  0.25772254  0.44635761     0.36500
N1709       N  0.86073968  0.22927804  0.42298337    -0.90100
H1710       H  0.81443919  0.26842530  0.45732913     0.17600
H1711       H  0.93765578  0.30373867  0.47969333     0.17600
N1712       N  0.89311061  0.34310399  0.51310702    -0.89100
H1713       H  0.84344271  0.23839990  0.40383695     0.35000
H1714       H  0.84786555  0.20991562  0.43717997     0.40100
H1715       H  0.88018868  0.34037039  0.53697619     0.39700
H1716       H  0.88478504  0.36593013  0.50083703     0.34600
C1717       C  0.12766368  0.24591005  0.45370237    -0.27100
C1718       C  0.09472870  0.23076590  0.45816631    -0.15200
C1719       C  0.08997708  0.20217571  0.48027110     0.35400
C1720       C  0.11944344  0.18436927  0.49159156    -0.26600
C1721       C  0.15262918  0.19614887  0.48197408    -0.15800
C1722       C  0.15709245  0.22881368  0.46602745     0.36500
N1723       N  0.19083682  0.24344420  0.45934786    -0.90100
H1724       H  0.13074612  0.26876389  0.43733925     0.17600
H1725       H  0.11653994  0.16004023  0.50569504     0.17600
N1726       N  0.05558794  0.18965329  0.48827507    -0.89100
H1727       H  0.20481356  0.22600056  0.44367772     0.35000
H1728       H  0.20398031  0.24638480  0.48324017     0.40100
H1729       H  0.04301524  0.20912780  0.50284099     0.39700
H1730       H  0.05695746  0.16754981  0.50418660     0.34600
C1731       C  0.02879986  0.41419346  0.30514130    -0.27100
C1732       C  0.04382136  0.40811903  0.27263867    -0.15200
C1733       C  0.04141594  0.37502348  0.25657822     0.35400
C1734       C  0.02786669  0.34704855  0.27552552    -0.26600
C1735       C  0.01824918  0.35222349  0.31041605    -0.15800
C1736       C  0.01681275  0.38630988  0.32472426     0.36500
N1737       N  0.00508457  0.39246970  0.35979596    -0.90100
H1738       H  0.02970517  0.43995328  0.31687630     0.17600
H1739       H  0.02816455  0.32095242  0.26425081     0.17600
N1740       N  0.05537029  0.36925750  0.22234044    -0.89100
H1741       H  0.98454891  0.41046521  0.35886583     0.35000
H1742       H  0.02558232  0.40391253  0.37403897     0.40100
H1743       H  0.03517537  0.35981857  0.20633527     0.39700
H1744       H  0.07424804  0.34959904  0.22424283     0.34600
C1745       C  0.95543348  0.42615731  0.44337524    -0.27100
C1746       C  0.98313378  0.43426414  0.46651937    -0.15200
C1747       C  0.00649761  0.40695347  0.47589094     0.35400
C1748       C  0.00264553  0.37346573  0.46085816    -0.26600
C1749       C  0.97596525  0.36558216  0.43660348    -0.15800
C1750       C  0.95152826  0.39216891  0.42869825     0.36500
N1751       N  0.92250613  0.38472094  0.40605226    -0.90100
H1752       H  0.93691751  0.44637501  0.43635457     0.17600
H1753       H  0.02158213  0.35354996  0.46768691     0.17600
N1754       N  0.03433339  0.41184343  0.50093796    -0.89100
H1755       H  0.92335193  0.40208298  0.38506621     0.35000
H1756       H  0.89955298  0.38960760  0.42001929     0.40100
H1757       H  0.03458432  0.43690324  0.51185810     0.39700
H1758       H  0.05801325  0.40846767  0.48780516     0.34600
C1759       C  0.85697520  0.20915933  0.33410050    -0.27100
C1760       C  0.88646455  0.22460774  0.31829398    -0.15200
C1761       C  0.88117803  0.24087582  0.28527768     0.35400
C1762       C  0.84740132  0.24318011  0.27064776    -0.26600
C1763       C  0.81778562  0.23003278  0.28772220    -0.15800
C1764       C  0.82298739  0.21164444  0.31946054     0.36500
N1765       N  0.79459639  0.19552673  0.33782322    -0.90100
H1766       H  0.86011171  0.19548320  0.35862626     0.17600
H1767       H  0.84407895  0.25648119  0.24588817     0.17600
N1768       N  0.90929626  0.25596096  0.26591723    -0.89100
H1769       H  0.79953853  0.16865645  0.33854945     0.35000
H1770       H  0.77105574  0.19846764  0.32428401     0.40100
H1771       H  0.92840750  0.23686006  0.26179625     0.39700
H1772       H  0.91985648  0.27683746  0.28024335     0.34600
C1773       C  0.12084324  0.24962781  0.29454724    -0.27100
C1774       C  0.11712648  0.27163053  0.32409538    -0.15200
C1775       C  0.14689994  0.29097497  0.33517824     0.35400
C1776       C  0.17932057  0.28684295  0.31744007    -0.26600
C1777       C  0.18292276  0.26406569  0.28847927    -0.15800
C1778       C  0.15284147  0.24552596  0.27688080     0.36500
N1779       N  0.15357617  0.22200277  0.24731390    -0.90100
H1780       H  0.09867759  0.23446920  0.28528684     0.17600
H1781       H  0.20201621  0.30122111  0.32652695     0.17600
N1782       N  0.14433551  0.31455337  0.36449220    -0.89100
H1783       H  0.14867481  0.19680565  0.25655167     0.35000
H1784       H  0.17797767  0.22127302  0.23528767     0.40100
H1785       H  0.12709718  0.33453993  0.35742302     0.39700
H1786       H  0.16846251  0.32647508  0.36954028     0.34600
C1787       C  0.80011464  0.49862247  0.62117938    -0.27100
C1788       C  0.79246430  0.48644477  0.65469744    -0.15200
C1789       C  0.76565816  0.46225229  0.65996218     0.35400
C1790       C  0.75157561  0.44518779  0.63093706    -0.26600
C1791       C  0.76401611  0.45303908  0.59753470    -0.15800
C1792       C  0.78573136  0.48190381  0.59209885     0.36500
N1793       N  0.79573360  0.49199006  0.55756685    -0.90100
H1794       H  0.82004200  0.51835229  0.61760842     0.17600
H1795       H  0.73357100  0.42362913  0.63467155     0.17600
N1796       N  0.75520400  0.45272787  0.69451361    -0.89100
H1797       H  0.82299516  0.49098048  0.55619660     0.35000
H1798       H  0.78825438  0.51803022  0.55406573     0.40100
H1799       H  0.75862175  0.42574796  0.69705323     0.39700
H1800       H  0.72848497  0.45790570  0.69680473     0.34600
C1801       C  0.81258931  0.51080310  0.88340945    -0.27100
C1802       C  0.80021400  0.51934273  0.85000859    -0.15200
C1803       C  0.76755054  0.53551468  0.84552637     0.35400
C1804       C  0.75123482  0.54917364  0.87482589    -0.26600
C1805       C  0.76729116  0.54620882  0.90757080    -0.15800
C1806       C  0.79552975  0.52365990  0.91276702     0.36500
N1807       N  0.80824077  0.51644654  0.94736616    -0.90100
H1808       H  0.83680503  0.49638998  0.88643785     0.17600
H1809       H  0.72814179  0.56515598  0.87166318     0.17600
N1810       N  0.75215042  0.54111095  0.81179034    -0.89100
H1811       H  0.82966947  0.49950977  0.94628052     0.35000
H1812       H  0.78846529  0.50317674  0.96061622     0.40100
H1813       H  0.74892239  0.51682754  0.79943281     0.39700
H1814       H  0.76912749  0.55627872  0.79697082     0.34600
C1815       C  0.95846177  0.50671644  0.62961512    -0.27100
C1816       C  0.92627839  0.52440778  0.63245474    -0.15200
C1817       C  0.91267188  0.53996644  0.60165886     0.35400
C1818       C  0.93056970  0.53654268  0.56930584    -0.26600
C1819       C  0.96206032  0.51768283  0.56652373    -0.15800
C1820       C  0.97616236  0.50287362  0.59754768     0.36500
N1821       N  0.00751838  0.48214699  0.59755454    -0.90100
H1822       H  0.96969413  0.49438046  0.65249873     0.17600
H1823       H  0.91930294  0.54802089  0.54598518     0.17600
N1824       N  0.88044797  0.55890046  0.60274899    -0.89100
H1825       H  0.02609032  0.49516034  0.61300396     0.35000
H1826       H  0.01806089  0.47929336  0.57258528     0.40100
H1827       H  0.86341621  0.54755992  0.58443305     0.39700
H1828       H  0.88544150  0.58450229  0.59474077     0.34600
C1829       C  0.95824880  0.50170300  0.87054898    -0.27100
C1830       C  0.92960465  0.47894082  0.86583616    -0.15200
C1831       C  0.91871883  0.45917137  0.89503229     0.35400
C1832       C  0.93565275  0.46326533  0.92790446    -0.26600
C1833       C  0.96354529  0.48687788  0.93266202    -0.15800
C1834       C  0.97516449  0.50598359  0.90315830     0.36500
N1835       N  0.00347496  0.53073082  0.90526695    -0.90100
H1836       H  0.96713955  0.51739506  0.84882729     0.17600
H1837       H  0.92664411  0.44811101  0.94992225     0.17600
N1838       N  0.89046761  0.43482401  0.89155701    -0.89100
H1839       H  0.02342640  0.52163151  0.88898442     0.35000
H1840       H  0.01412595  0.53250749  0.93040111     0.40100
H1841       H  0.87115714  0.44185427  0.90955058     0.39700
H1842       H  0.89980740  0.41006568  0.89832400     0.34600
C1843       C  0.79041451  0.62552191  0.75057461    -0.27100
C1844       C  0.81751734  0.61974484  0.77494223    -0.15200
C1845       C  0.82680213  0.64799759  0.79757820     0.35400
C1846       C  0.81149842  0.68135950  0.79294371    -0.26600
C1847       C  0.78578930  0.68725848  0.76714161    -0.15800
C1848       C  0.77423948  0.65828908  0.74673628     0.36500
N1849       N  0.74582615  0.66080119  0.72205242    -0.90100
H1850       H  0.78181582  0.60435235  0.73360095     0.17600
H1851       H  0.81959916  0.70277761  0.80981749     0.17600
N1852       N  0.85012815  0.64334411  0.82660638    -0.89100
H1853       H  0.75578203  0.65585570  0.69706693     0.35000
H1854       H  0.73481419  0.68569829  0.72159502     0.40100
H1855       H  0.87465078  0.63595076  0.81745036     0.39700
H1856       H  0.84037609  0.62324355  0.84217420     0.34600
C1857       C  0.66833906  0.14390166  0.79278076    -0.27100
C1858       C  0.68241528  0.11499042  0.77445825    -0.15200
C1859       C  0.71198993  0.12135571  0.75286246     0.35400
C1860       C  0.72525592  0.15541546  0.74922088    -0.26600
C1861       C  0.71041644  0.18426566  0.76646258    -0.15800
C1862       C  0.68166577  0.17822452  0.78896929     0.36500
N1863       N  0.66526533  0.20602947  0.80832148    -0.90100
H1864       H  0.64615990  0.14002036  0.80982808     0.17600
H1865       H  0.74747465  0.15947745  0.73222459     0.17600
N1866       N  0.72909929  0.09409301  0.73359995    -0.89100
H1867       H  0.63952274  0.20814575  0.79928537     0.35000
H1868       H  0.67724409  0.23002967  0.80355724     0.40100
H1869       H  0.71155274  0.08336199  0.71542976     0.39700
H1870       H  0.73748427  0.07489073  0.75107648     0.34600
C1871       C  0.74394940  0.22698218  0.84535744    -0.27100
C1872       C  0.76220836  0.21332644  0.81659728    -0.15200
C1873       C  0.78416802  0.18394551  0.82219514     0.35400
C1874       C  0.78743183  0.16965571  0.85617514    -0.26600
C1875       C  0.76830348  0.18271044  0.88495500    -0.15800
C1876       C  0.74595396  0.21188925  0.87875850     0.36500
N1877       N  0.72371247  0.22627284  0.90526554    -0.90100
H1878       H  0.72690967  0.24929099  0.84156241     0.17600
H1879       H  0.80452875  0.14739532  0.85980137     0.17600
N1880       N  0.80326542  0.16764034  0.79421873    -0.89100
H1881       H  0.73899295  0.23533383  0.92615890     0.35000
H1882       H  0.70665536  0.20680886  0.91385788     0.40100
H1883       H  0.79817436  0.17979156  0.77038847     0.39700
H1884       H  0.79408035  0.14199804  0.79162005     0.34600
C1885       C  0.64398627  0.21256577  0.66491576    -0.27100
C1886       C  0.61401934  0.22813678  0.67984400    -0.15200
C1887       C  0.61856435  0.24588034  0.71256440     0.35400
C1888       C  0.65173185  0.24794583  0.72846271    -0.26600
C1889       C  0.68162292  0.23335106  0.71310639    -0.15800
C1890       C  0.67740108  0.21463875  0.68110787     0.36500
N1891       N  0.70626922  0.19767875  0.66409872    -0.90100
H1892       H  0.64163798  0.19892038  0.64006629     0.17600
H1893       H  0.65439096  0.26240104  0.75283506     0.17600
N1894       N  0.59049841  0.26341471  0.73010879    -0.89100
H1895       H  0.70064498  0.17093960  0.66290781     0.35000
H1896       H  0.72913643  0.20004696  0.67892908     0.40100
H1897       H  0.57073024  0.24544304  0.73549856     0.39700
H1898       H  0.58087477  0.28327411  0.71407149     0.34600
C1899       C  0.74953333  0.27247152  0.65753295    -0.27100
C1900       C  0.73147969  0.28669793  0.68606168    -0.15200
C1901       C  0.71174435  0.31745068  0.68092808     0.35400
C1902       C  0.71034804  0.33297881  0.64727047    -0.26600
C1903       C  0.72900984  0.31900427  0.61855938    -0.15800
C1904       C  0.74926312  0.28828227  0.62452294     0.36500
N1905       N  0.77152205  0.27320310  0.59840150    -0.90100
H1906       H  0.76568065  0.24952804  0.66143013     0.17600
H1907       H  0.69531513  0.35669793  0.64373646     0.17600
N1908       N  0.69426813  0.33351204  0.71007746    -0.89100
H1909       H  0.79006361  0.29176401  0.59093136     0.35000
H1910       H  0.75658080  0.26549262  0.57676686     0.40100
H1911       H  0.67469953  0.31641238  0.71825960     0.39700
H1912       H  0.68170625  0.35645555  0.70226856     0.34600
C1913       C  0.77020130  0.34432856  0.75782366    -0.27100
C1914       C  0.78230047  0.31632724  0.73726631    -0.15200
C1915       C  0.80909713  0.32308731  0.71295558     0.35400
C1916       C  0.82345507  0.35713695  0.71007202    -0.26600
C1917       C  0.81178665  0.38528715  0.73105716    -0.15800
C1918       C  0.78435989  0.37822839  0.75520301     0.36500
N1919       N  0.77077095  0.40446230  0.77836854    -0.90100
H1920       H  0.74958509  0.33967245  0.77659541     0.17600
H1921       H  0.84431783  0.36138055  0.69150979     0.17600
N1922       N  0.82227579  0.29544236  0.69137463    -0.89100
H1923       H  0.76032800  0.42485417  0.76358030     0.35000
H1924       H  0.79105602  0.41390049  0.79425018     0.40100
H1925       H  0.84918032  0.29363683  0.69590219     0.39700
H1926       H  0.81875923  0.30267853  0.66525857     0.34600
C1927       C  0.53663374  0.84158224  0.77145189    -0.27100
C1928       C  0.51911496  0.84891936  0.80249710    -0.15200
C1929       C  0.51240091  0.88351364  0.81316801     0.35400
C1930       C  0.52690660  0.91067796  0.79448306    -0.26600
C1931       C  0.54934405  0.90299736  0.76702750    -0.15800
C1932       C  0.55277167  0.86863885  0.75390643     0.36500
N1933       N  0.57487615  0.86036147  0.72495548    -0.90100
H1934       H  0.54129213  0.81476090  0.76330195     0.17600
H1935       H  0.52404594  0.93728513  0.80402970     0.17600
N1936       N  0.49307420  0.89093828  0.84432023    -0.89100
H1937       H  0.60049189  0.86665264  0.73206050     0.35000
H1938       H  0.56739017  0.87582590  0.70374144     0.40100
H1939       H  0.47207336  0.90706445  0.83756928     0.39700
H1940       H  0.50930259  0.90493391  0.86152789     0.34600
C1941       C  0.62703971  0.74663575  0.94620802    -0.27100
C1942       C  0.59456596  0.73060199  0.95072965    -0.15200
C1943       C  0.58978075  0.70389374  0.97501799     0.35400
C1944       C  0.61931195  0.68915091  0.98997325    -0.26600
C1945       C  0.65246155  0.70129795  0.98060709    -0.15800
C1946       C  0.65647592  0.73215573  0.96139175     0.36500
N1947       N  0.68992924  0.74730863  0.95446890    -0.90100
H1948       H  0.62991480  0.76817139  0.92818814     0.17600
H1949       H  0.61673056  0.66612540  0.00613182     0.17600
N1950       N  0.55565879  0.68981333  0.98158646    -0.89100
H1951       H  0.70507275  0.72898355  0.94112510     0.35000
H1952       H  0.70204849  0.75298020  0.97842490     0.40100
H1953       H  0.54087513  0.70953326  0.99347888     0.39700
H1954       H  0.55710670  0.66923063  0.99941682     0.34600
C1955       C  0.49530103  0.62088714  0.80528226    -0.27100
C1956       C  0.48391873  0.65428913  0.79571490    -0.15200
C1957       C  0.46015060  0.65877897  0.76785864     0.35400
C1958       C  0.44327806  0.62933774  0.75469870    -0.26600
C1959       C  0.45073714  0.59641419  0.76856228    -0.15800
C1960       C  0.47859578  0.59154970  0.79174506     0.36500
N1961       N  0.48766108  0.55741152  0.80396145    -0.90100
H1962       H  0.51435898  0.61770324  0.82614294     0.17600
H1963       H  0.42257302  0.63239801  0.73546929     0.17600
N1964       N  0.45120592  0.69237813  0.75382942    -0.89100
H1965       H  0.48545045  0.55747455  0.83122175     0.35000
H1966       H  0.51390638  0.55294602  0.79790365     0.40100
H1967       H  0.46594609  0.71233103  0.76539078     0.39700
H1968       H  0.42491597  0.69710440  0.75932051     0.34600
C1969       C  0.54164134  0.60372559  0.91671920    -0.27100
C1970       C  0.51995374  0.63167107  0.92744707    -0.15200
C1971       C  0.49547064  0.62478852  0.95457256     0.35400
C1972       C  0.49377602  0.59164512  0.97003727    -0.26600
C1973       C  0.51566410  0.56406105  0.95983075    -0.15800
C1974       C  0.53985237  0.57021930  0.93243773     0.36500
N1975       N  0.56278628  0.54329265  0.91972141    -0.90100
H1976       H  0.56014574  0.60783410  0.89576715     0.17600
H1977       H  0.47462761  0.58724177  0.99036831     0.17600
N1978       N  0.47084945  0.65039388  0.96651410    -0.89100
H1979       H  0.55602124  0.53825578  0.89361536     0.35000
H1980       H  0.55921729  0.51995464  0.93322664     0.40100
H1981       H  0.45566056  0.65864039  0.94529551     0.39700
H1982       H  0.48432363  0.67159384  0.97746169     0.34600
C1983       C  0.62371479  0.75193437  0.79046475    -0.27100
C1984       C  0.61843686  0.77443198  0.81935967    -0.15200
C1985       C  0.64706053  0.79586763  0.82999966     0.35400
C1986       C  0.67973881  0.79305619  0.81295284    -0.26600
C1987       C  0.68507835  0.76943954  0.78503966    -0.15800
C1988       C  0.65616731  0.74908180  0.77341907     0.36500
N1989       N  0.65859170  0.72495192  0.74445611    -0.90100
H1990       H  0.60251762  0.73537222  0.78132829     0.17600
H1991       H  0.70136314  0.80891252  0.82222914     0.17600
N1992       N  0.64388328  0.82094596  0.85779259    -0.89100
H1993       H  0.65496425  0.69972222  0.75421413     0.35000
H1994       H  0.68310180  0.72539875  0.73273688     0.40100
H1995       H  0.63858832  0.80777381  0.88100758     0.39700
H1996       H  0.62302915  0.83762656  0.85200913     0.34600
C1997       C  0.50221303  0.87130038  0.95878926    -0.27100
C1998       C  0.47790127  0.86607081  0.93150430    -0.15200
C1999       C  0.45608419  0.89449343  0.92206314     0.35400
C2000       C  0.46032368  0.92749066  0.93886862    -0.26600
C2001       C  0.48537257  0.93264988  0.96550929    -0.15800
C2002       C  0.50600553  0.90367282  0.97600961     0.36500
N2003       N  0.53174653  0.90611595  0.00353539    -0.90100
H2004       H  0.51918534  0.85003920  0.96662818     0.17600
H2005       H  0.44418520  0.94937698  0.93102266     0.17600
N2006       N  0.42984610  0.88990437  0.89539147    -0.89100
H2007       H  0.52489613  0.88823209  0.02290639     0.35000
H2008       H  0.53169858  0.93061236  0.01563912     0.40100
H2009       H  0.41629995  0.91326981  0.89127397     0.39700
H2010       H  0.41163008  0.87185577  0.90468268     0.34600
C2011       C  0.23484782  0.84611054  0.74763584    -0.27100
C2012       C  0.21939945  0.81709183  0.76365633    -0.15200
C2013       C  0.19104586  0.82297269  0.78632146     0.35400
C2014       C  0.17784861  0.85726073  0.79133697    -0.26600
C2015       C  0.19167916  0.88628742  0.77333721    -0.15800
C2016       C  0.22155569  0.88018116  0.75197638     0.36500
N2017       N  0.23884804  0.90767642  0.73359821    -0.90100
H2018       H  0.25728294  0.84211800  0.73085084     0.17600
H2019       H  0.15570602  0.86090585  0.80853253     0.17600
N2020       N  0.17522070  0.79417651  0.80394585    -0.89100
H2021       H  0.24681236  0.92680406  0.75159316     0.35000
H2022       H  0.22152355  0.91846720  0.71540534     0.40100
H2023       H  0.17650221  0.79916954  0.83086249     0.39700
H2024       H  0.14884999  0.79328041  0.79668843     0.34600
C2025       C  0.27184204  0.65551584  0.73920863    -0.27100
C2026       C  0.28996377  0.68537376  0.72798165    -0.15200
C2027       C  0.32340753  0.68032419  0.71305902     0.35400
C2028       C  0.33834492  0.64642327  0.71115495    -0.26600
C2029       C  0.32083824  0.61667050  0.72388597    -0.15800
C2030       C  0.28671413  0.62166858  0.73739372     0.36500
N2031       N  0.26706141  0.59256941  0.75009946    -0.90100
H2032       H  0.24609868  0.65860951  0.75053507     0.17600
H2033       H  0.36434882  0.64363882  0.70039630     0.17600
N2034       N  0.34261795  0.70938309  0.69980827    -0.89100
H2035       H  0.24359040  0.59125425  0.73600629     0.35000
H2036       H  0.26109294  0.59736097  0.77637858     0.40100
H2037       H  0.34792846  0.70429011  0.67344318     0.39700
H2038       H  0.36665659  0.71027398  0.71291699     0.34600
C2039       C  0.38186234  0.75056538  0.78630667    -0.27100
C2040       C  0.38581261  0.72767980  0.81476540    -0.15200
C2041       C  0.35654015  0.70705975  0.82447314     0.35400
C2042       C  0.32420388  0.71146189  0.80728162    -0.26600
C2043       C  0.32015001  0.73568160  0.78013337    -0.15800
C2044       C  0.34978644  0.75477611  0.76889814     0.36500
N2045       N  0.34883029  0.77771127  0.73914075    -0.90100
H2046       H  0.40387411  0.76604376  0.77764349     0.17600
H2047       H  0.30190075  0.69612548  0.81546242     0.17600
N2048       N  0.35876958  0.68105963  0.85117184    -0.89100
H2049       H  0.35638383  0.80267100  0.74723481     0.35000
H2050       H  0.32372535  0.77986705  0.72842507     0.40100
H2051       H  0.36421918  0.69322978  0.87510642     0.39700
H2052       H  0.37909940  0.66388102  0.84493909     0.34600
C2053       C  0.19950652  0.50224173  0.37635841    -0.27100
C2054       C  0.20333846  0.51691556  0.34330491    -0.15200
C2055       C  0.22887897  0.54227170  0.33712606     0.35400
C2056       C  0.24410524  0.55887850  0.36579308    -0.26600
C2057       C  0.23456292  0.54885260  0.39955341    -0.15800
C2058       C  0.21569536  0.51783243  0.40489756     0.36500
N2059       N  0.20987445  0.50372150  0.43886927    -0.90100
H2060       H  0.18140106  0.48088596  0.38034767     0.17600
H2061       H  0.26068588  0.58150603  0.36179005     0.17600
N2062       N  0.23771925  0.55253202  0.30234890    -0.89100
H2063       H  0.19613750  0.52231612  0.45330292     0.35000
H2064       H  0.23407202  0.49962463  0.45083853     0.40100
H2065       H  0.26420669  0.54699770  0.29863926     0.39700
H2066       H  0.23495234  0.57963561  0.30083489     0.34600
C2067       C  0.30002062  0.53271440  0.58585856    -0.27100
C2068       C  0.27328777  0.55582970  0.59418572    -0.15200
C2069       C  0.26055028  0.55885809  0.62863541     0.35400
C2070       C  0.27700940  0.54048254  0.65507916    -0.26600
C2071       C  0.30680083  0.52110243  0.64729239    -0.15800
C2072       C  0.31766771  0.51586786  0.61252547     0.36500
N2073       N  0.34802086  0.49549898  0.60456997    -0.90100
H2074       H  0.30934844  0.53029142  0.55920444     0.17600
H2075       H  0.26900849  0.54446568  0.68201332     0.17600
N2076       N  0.23254612  0.58192732  0.63764511    -0.89100
H2077       H  0.36614922  0.51171143  0.59222652     0.35000
H2078       H  0.34065131  0.47597624  0.58670629     0.40100
H2079       H  0.21097983  0.57552311  0.62196154     0.39700
H2080       H  0.24035564  0.60749365  0.63225830     0.34600
C2081       C  0.37128784  0.74742998  0.44332631    -0.27100
C2082       C  0.40463644  0.73491265  0.45187951    -0.15200
C2083       C  0.40895633  0.70998234  0.47844473     0.35400
C2084       C  0.37942239  0.69293693  0.49061755    -0.26600
C2085       C  0.34629430  0.70174496  0.47781635    -0.15800
C2086       C  0.34175663  0.73095725  0.45650249     0.36500
N2087       N  0.30764317  0.74176245  0.44564678    -0.90100
H2088       H  0.36815957  0.76740742  0.42354645     0.17600
H2089       H  0.38251089  0.67123342  0.50834516     0.17600
N2090       N  0.44251951  0.70032201  0.49230976    -0.89100
H2091       H  0.30682168  0.74089261  0.41829439     0.35000
H2092       H  0.30431729  0.76781509  0.45341695     0.40100
H2093       H  0.46245281  0.71543656  0.48173309     0.39700
H2094       H  0.44710888  0.67417515  0.48563954     0.34600
C2095       C  0.42930140  0.56620239  0.53638420    -0.27100
C2096       C  0.43417910  0.53779463  0.51313738    -0.15200
C2097       C  0.40449050  0.52572681  0.49405781     0.35400
C2098       C  0.37197222  0.54280473  0.49762541    -0.26600
C2099       C  0.36711386  0.57196503  0.51991677    -0.15800
C2100       C  0.39638644  0.58281145  0.54041506     0.36500
N2101       N  0.39347296  0.60984754  0.56634678    -0.90100
H2102       H  0.45124508  0.57591753  0.55148282     0.17600
H2103       H  0.35027323  0.53331927  0.48188832     0.17600
N2104       N  0.40613534  0.49625292  0.47047748    -0.89100
H2105       H  0.37347600  0.60307159  0.58360406     0.35000
H2106       H  0.38692515  0.63324821  0.55414950     0.40100
H2107       H  0.43103065  0.48523164  0.46950316     0.39700
H2108       H  0.40053853  0.50524259  0.44528861     0.34600
C2109       C  0.10438432  0.57779850  0.45736400    -0.27100
C2110       C  0.13309409  0.56458980  0.47663619    -0.15200
C2111       C  0.12660373  0.53548334  0.49878288     0.35400
C2112       C  0.09290618  0.52106235  0.50093003    -0.26600
C2113       C  0.06401541  0.53601795  0.48395631    -0.15800
C2114       C  0.07003259  0.56462667  0.46138380     0.36500
N2115       N  0.04213468  0.58111979  0.44234057    -0.90100
H2116       H  0.10829316  0.59971774  0.44000712     0.17600
H2117       H  0.08895281  0.49848512  0.51744231     0.17600
N2118       N  0.15287381  0.52089421  0.52118505    -0.89100
H2119       H  0.04018740  0.60687311  0.45152866     0.35000
H2120       H  0.01813270  0.56923836  0.44733738     0.40100
H2121       H  0.16187957  0.54028015  0.53840262     0.39700
H2122       H  0.17351608  0.51140872  0.50612340     0.34600
C2123       C  0.25246644  0.71056214  0.61794833    -0.27100
C2124       C  0.22623889  0.68538874  0.61166074    -0.15200
C2125       C  0.20320875  0.67757777  0.63968998     0.35400
C2126       C  0.20898660  0.69231309  0.67330187    -0.26600
C2127       C  0.23639825  0.71610378  0.67968703    -0.15800
C2128       C  0.25732871  0.72610108  0.65118589     0.36500
N2129       N  0.28344818  0.75259592  0.65581060    -0.90100
H2130       H  0.27006758  0.71781488  0.59708423     0.17600
H2131       H  0.19193742  0.68502550  0.69451010     0.17600
N2132       N  0.17287046  0.65613564  0.63461036    -0.89100
H2133       H  0.30734532  0.74244368  0.64741113     0.35000
H2134       H  0.27711973  0.77337796  0.63933631     0.40100
H2135       H  0.18052003  0.63088228  0.62762289     0.39700
H2136       H  0.15804530  0.66664645  0.61418193     0.34600
C2137       C  0.37870044  0.74667259  0.28975137    -0.27100
C2138       C  0.38303877  0.77001135  0.31813577    -0.15200
C2139       C  0.35387445  0.79049728  0.32811858     0.35400
C2140       C  0.32143474  0.78675952  0.31025414    -0.26600
C2141       C  0.31727594  0.76296641  0.28221215    -0.15800
C2142       C  0.34680799  0.74313613  0.27159538     0.36500
N2143       N  0.34548623  0.71860477  0.24284841    -0.90100
H2144       H  0.40041528  0.73047042  0.28148224     0.17600
H2145       H  0.29924430  0.80224677  0.31861502     0.17600
N2146       N  0.35692924  0.81512594  0.35634956    -0.89100
H2147       H  0.36441816  0.72592195  0.22467499     0.35000
H2148       H  0.32162290  0.71952410  0.22957914     0.40100
H2149       H  0.33841292  0.80863894  0.37527584     0.39700
H2150       H  0.35068523  0.83988058  0.34670310     0.34600
C2151       C  0.27257210  0.84326241  0.24394311    -0.27100
C2152       C  0.28897097  0.81353302  0.22998251    -0.15200
C2153       C  0.32107341  0.81812381  0.21250269     0.35400
C2154       C  0.33675459  0.85175416  0.21073880    -0.26600
C2155       C  0.32088135  0.88153383  0.22592058    -0.15800
C2156       C  0.28784538  0.87678749  0.24202214     0.36500
N2157       N  0.26966960  0.90583660  0.25722910    -0.90100
H2158       H  0.24778039  0.84034450  0.25721143     0.17600
H2159       H  0.36182982  0.85435366  0.19797272     0.17600
N2160       N  0.33793417  0.78876169  0.19652709    -0.89100
H2161       H  0.26570808  0.90060045  0.28374804     0.35000
H2162       H  0.24520890  0.90772206  0.24506328     0.40100
H2163       H  0.36309623  0.78692499  0.20714578     0.39700
H2164       H  0.34042520  0.79389807  0.16981395     0.34600
C2165       C  0.19041680  0.67812744  0.28724356    -0.27100
C2166       C  0.21482726  0.68302706  0.26021465    -0.15200
C2167       C  0.22432223  0.65349818  0.23960687     0.35400
C2168       C  0.20790616  0.62107944  0.24505266    -0.26600
C2169       C  0.18242420  0.61624924  0.27101181    -0.15800
C2170       C  0.17467691  0.64521645  0.29321976     0.36500
N2171       N  0.15224394  0.64179959  0.32292483    -0.90100
H2172       H  0.18375387  0.70002177  0.30408101     0.17600
H2173       H  0.21510790  0.59933366  0.22824142     0.17600
N2174       N  0.25132273  0.65486056  0.21355724    -0.89100
H2175       H  0.16208849  0.62187326  0.33877376     0.35000
H2176       H  0.12720635  0.63478351  0.31456395     0.40100
H2177       H  0.26172639  0.67989991  0.21084116     0.39700
H2178       H  0.24023044  0.64793970  0.18946686     0.34600
C2179       C  0.24919524  0.72802205  0.33949172    -0.27100
C2180       C  0.26620438  0.71228609  0.31099454    -0.15200
C2181       C  0.28514470  0.68094462  0.31708803     0.35400
C2182       C  0.28692157  0.66693395  0.35124357    -0.26600
C2183       C  0.26888785  0.68206922  0.37970849    -0.15800
C2184       C  0.24939803  0.71312375  0.37304386     0.36500
N2185       N  0.22790473  0.72948214  0.39903886    -0.90100
H2186       H  0.23402292  0.75156168  0.33520254     0.17600
H2187       H  0.30155969  0.64301585  0.35514212     0.17600
N2188       N  0.30239379  0.66219067  0.28944520    -0.89100
H2189       H  0.24329406  0.73692246  0.42045498     0.35000
H2190       H  0.20883206  0.71170665  0.40701287     0.40100
H2191       H  0.29826469  0.67420814  0.26539711     0.39700
H2192       H  0.29072375  0.63753616  0.28747386     0.34600
C2193       C  0.83717191  0.72787415  0.04265951    -0.27100
C2194       C  0.84522231  0.70390480  0.01633997    -0.15200
C2195       C  0.87952570  0.69959006  0.00433291     0.35400
C2196       C  0.90647000  0.71655771  0.02190093    -0.26600
C2197       C  0.89882981  0.73611354  0.05175968    -0.15800
C2198       C  0.86415372  0.74388009  0.06120528     0.36500
N2199       N  0.85682317  0.76554539  0.09117879    -0.90100
H2200       H  0.81039686  0.73104273  0.05118815     0.17600
H2201       H  0.93335144  0.71108146  0.01483293     0.17600
N2202       N  0.88718080  0.67549806  0.97657244    -0.89100
H2203       H  0.82986513  0.76746043  0.09523267     0.35000
H2204       H  0.86567232  0.79074726  0.08556683     0.40100
H2205       H  0.90423778  0.65654297  0.98639886     0.39700
H2206       H  0.90024763  0.68913442  0.95694512     0.34600
C2207       C  0.02415357  0.59211060  0.21163740    -0.27100
C2208       C  0.05587371  0.59909176  0.22846161    -0.15200
C2209       C  0.06886606  0.63345891  0.23113179     0.35400
C2210       C  0.05121427  0.66014170  0.21457216    -0.26600
C2211       C  0.02209215  0.65258204  0.19420852    -0.15800
C2212       C  0.00744911  0.61874176  0.19351375     0.36500
N2213       N  0.97733982  0.61039817  0.17274482    -0.90100
H2214       H  0.01449159  0.56551771  0.20942424     0.17600
H2215       H  0.06220266  0.68611424  0.21496709     0.17600
N2216       N  0.10127231  0.64096845  0.24850807    -0.89100
H2217       H  0.98352198  0.61489411  0.14656840     0.35000
H2218       H  0.95707620  0.62722583  0.18006769     0.40100
H2219       H  0.09656189  0.66034094  0.26734726     0.39700
H2220       H  0.11851385  0.65138913  0.23013648     0.34600
C2221       C  0.00305153  0.62924370  0.04014218    -0.27100
C2222       C  0.97605785  0.63591691  0.06420379    -0.15200
C2223       C  0.95250592  0.60821501  0.07152205     0.35400
C2224       C  0.95810846  0.57462410  0.05706820    -0.26600
C2225       C  0.98597364  0.56778664  0.03409504    -0.15800
C2226       C  0.00794836  0.59611195  0.02463990     0.36500
N2227       N  0.03560239  0.59249334  0.99944057    -0.90100
H2228       H  0.02120474  0.64992392  0.03358312     0.17600
H2229       H  0.94033773  0.55376800  0.06379984     0.17600
N2230       N  0.92180703  0.61359773  0.09219332    -0.89100
H2231       H  0.02974999  0.60899201  0.97850289     0.35000
H2232       H  0.03695138  0.56732453  0.98888149     0.40100
H2233       H  0.90745780  0.63409443  0.08124553     0.39700
H2234       H  0.92900537  0.62053818  0.11766379     0.34600
C2235       C  0.85651442  0.79408943  0.17402106    -0.27100
C2236       C  0.88425206  0.77201963  0.18431721    -0.15200
C2237       C  0.87767765  0.74766814  0.21127189     0.35400
C2238       C  0.84423193  0.74514494  0.22618933    -0.26600
C2239       C  0.81647344  0.76661258  0.21558757    -0.15800
C2240       C  0.82289569  0.79177606  0.18924861     0.36500
N2241       N  0.79591820  0.81460932  0.17654902    -0.90100
H2242       H  0.86072852  0.81293484  0.15342763     0.17600
H2243       H  0.83979590  0.72577162  0.24626309     0.17600
N2244       N  0.90460527  0.72454713  0.22317548    -0.89100
H2245       H  0.80319442  0.84022023  0.18303047     0.35000
H2246       H  0.77212993  0.80990230  0.18890878     0.40100
H2247       H  0.89606798  0.69882505  0.21927930     0.39700
H2248       H  0.90805869  0.72861610  0.25006816     0.34600
C2249       C  0.14646597  0.71400686  0.16115773    -0.27100
C2250       C  0.11676228  0.72759139  0.17829374    -0.15200
C2251       C  0.12220466  0.74302312  0.21207210     0.35400
C2252       C  0.15597716  0.74467129  0.22683164    -0.26600
C2253       C  0.18561042  0.73308042  0.20863770    -0.15800
C2254       C  0.18056012  0.71744488  0.17544201     0.36500
N2255       N  0.20993234  0.70538771  0.15575678    -0.90100
H2256       H  0.14350812  0.70126381  0.13598186     0.17600
H2257       H  0.15932712  0.75669926  0.25241523     0.17600
N2258       N  0.09449272  0.75859744  0.23188102    -0.89100
H2259       H  0.21012769  0.71887966  0.13205223     0.35000
H2260       H  0.20588134  0.67897270  0.14981556     0.40100
H2261       H  0.07511231  0.73998698  0.23645629     0.39700
H2262       H  0.08406311  0.77951839  0.21784390     0.34600
C2263       C  0.08500775  0.80606575  0.02893904    -0.27100
C2264       C  0.09226026  0.77520793  0.04640053    -0.15200
C2265       C  0.12498556  0.75869615  0.04292247     0.35400
C2266       C  0.15140824  0.77571067  0.02498834    -0.26600
C2267       C  0.14530399  0.80917470  0.01199158    -0.15800
C2268       C  0.11147564  0.82358166  0.01193379     0.36500
N2269       N  0.10454414  0.85708095  0.99684805    -0.90100
H2270       H  0.05976686  0.81822591  0.03114743     0.17600
H2271       H  0.17750629  0.76465789  0.02473693     0.17600
N2272       N  0.13270465  0.72624129  0.05960113    -0.89100
H2273       H  0.09558262  0.87380465  0.01665368     0.35000
H2274       H  0.08427878  0.85398789  0.97863905     0.40100
H2275       H  0.11432481  0.70773599  0.05117864     0.39700
H2276       H  0.12987507  0.72999737  0.08647174     0.34600
C2277       C  0.38081397  0.80635566  0.99146883    -0.27100
C2278       C  0.34721811  0.79824388  0.97918783    -0.15200
C2279       C  0.34175309  0.77073523  0.95550968     0.35400
C2280       C  0.37062808  0.75566617  0.93956932    -0.26600
C2281       C  0.40416812  0.76769840  0.94789488    -0.15800
C2282       C  0.40972917  0.79077450  0.97595114     0.36500
N2283       N  0.44432260  0.80048080  0.98666412    -0.90100
H2284       H  0.38465688  0.82703512  0.01069124     0.17600
H2285       H  0.36674077  0.73699077  0.91848384     0.17600
N2286       N  0.30722059  0.76042417  0.94526466    -0.89100
H2287       H  0.44727279  0.79378073  0.01299594     0.35000
H2288       H  0.44636435  0.82766995  0.98508942     0.40100
H2289       H  0.30427297  0.73395052  0.95122371     0.39700
H2290       H  0.30536045  0.76273072  0.91808953     0.34600
C2291       C  0.28757320  0.97367427  0.09289334    -0.27100
C2292       C  0.26980308  0.94267853  0.09959867    -0.15200
C2293       C  0.26450670  0.93099622  0.13398570     0.35400
C2294       C  0.28110690  0.94837104  0.16125620    -0.26600
C2295       C  0.30351673  0.97591830  0.15374196    -0.15800
C2296       C  0.30540071  0.99013133  0.11990077     0.36500
N2297       N  0.32719468  0.01940663  0.11192619    -0.90100
H2298       H  0.29103252  0.98265651  0.06627107     0.17600
H2299       H  0.27910027  0.93833093  0.18761093     0.17600
N2300       N  0.24424178  0.90033111  0.14088256    -0.89100
H2301       H  0.35309716  0.01231154  0.11664267     0.35000
H2302       H  0.32053686  0.04011679  0.12863279     0.40100
H2303       H  0.22420117  0.90723899  0.15810731     0.39700
H2304       H  0.26035125  0.88223363  0.15353851     0.34600
C2305       C  0.22337785  0.98106371  0.90645784    -0.27100
C2306       C  0.24012326  0.94969560  0.89843408    -0.15200
C2307       C  0.24665379  0.93990771  0.86356569     0.35400
C2308       C  0.23067907  0.95854953  0.83695474    -0.26600
C2309       C  0.20774854  0.98544545  0.84564111    -0.15800
C2310       C  0.20625046  0.99885940  0.88002283     0.36500
N2311       N  0.18486160  0.02817465  0.88911871    -0.90100
H2312       H  0.21943492  0.98895197  0.93347681     0.17600
H2313       H  0.23278014  0.94931332  0.81020176     0.17600
N2314       N  0.26697494  0.90951962  0.85542062    -0.89100
H2315       H  0.15888257  0.02145703  0.88403308     0.35000
H2316       H  0.19181217  0.04914162  0.87316970     0.40100
H2317       H  0.28760820  0.91717743  0.83933911     0.39700
H2318       H  0.25120359  0.89218693  0.84108633     0.34600
C2319       C  0.29378602  0.82877521  0.85392062    -0.27100
C2320       C  0.27245633  0.81626624  0.88114672    -0.15200
C2321       C  0.25002292  0.78743541  0.87320978     0.35400
C2322       C  0.24994739  0.77222994  0.83960621    -0.26600
C2323       C  0.27017611  0.78565030  0.81231218    -0.15800
C2324       C  0.29217938  0.81439618  0.81968609     0.36500
N2325       N  0.31215141  0.82990064  0.79236772    -0.90100
H2326       H  0.31101647  0.85077616  0.85880826     0.17600
H2327       H  0.23243259  0.75052549  0.83423832     0.17600
N2328       N  0.22567147  0.77371556  0.89795809    -0.89100
H2329       H  0.33836343  0.82981393  0.80023888     0.35000
H2330       H  0.30433789  0.85599097  0.79008216     0.40100
H2331       H  0.20839636  0.79357146  0.90539594     0.39700
H2332       H  0.23925534  0.76458976  0.91982749     0.34600
C2333       C  0.20681282  0.82622971  0.13937962    -0.27100
C2334       C  0.22804735  0.81552089  0.11108453    -0.15200
C2335       C  0.25325438  0.78892886  0.11794055     0.35400
C2336       C  0.25680741  0.77474553  0.15163813    -0.26600
C2337       C  0.23593438  0.78558954  0.17976013    -0.15800
C2338       C  0.21052155  0.81191662  0.17342101     0.36500
N2339       N  0.18844899  0.82520065  0.20078152    -0.90100
H2340       H  0.18758603  0.84660399  0.13527912     0.17600
H2341       H  0.27638999  0.75472393  0.15595849     0.17600
N2342       N  0.27659454  0.77611165  0.09161585    -0.89100
H2343       H  0.19448222  0.85166476  0.20428790     0.35000
H2344       H  0.19375653  0.81307379  0.22461661     0.40100
H2345       H  0.29171134  0.79686055  0.08242881     0.39700
H2346       H  0.26193913  0.76518014  0.07112777     0.34600
C2347       C  0.39661509  0.91464099  0.03789363    -0.27100
C2348       C  0.36688621  0.92986974  0.02203069    -0.15200
C2349       C  0.37197002  0.96234401  0.00443282     0.35400
C2350       C  0.40539550  0.97757736  0.00253692    -0.26600
C2351       C  0.43496606  0.96180353  0.01734500    -0.15800
C2352       C  0.43027020  0.93024627  0.03569719     0.36500
N2353       N  0.45963180  0.91376427  0.05196267    -0.90100
H2354       H  0.39397474  0.89001933  0.05148057     0.17600
H2355       H  0.40848073  0.00183463  0.98835770     0.17600
N2356       N  0.34407449  0.98047715  0.98722392    -0.89100
H2357       H  0.46164996  0.88842074  0.04172077     0.35000
H2358       H  0.45445817  0.91177443  0.07872101     0.40100
H2359       H  0.32443577  0.98590894  0.00538998     0.39700
H2360       H  0.33427470  0.96486002  0.96686672     0.34600
C2361       C  0.05332410  0.83600454  0.72492534    -0.27100
C2362       C  0.02335087  0.84403480  0.70591569    -0.15200
C2363       C  0.00944409  0.87811395  0.70606540     0.35400
C2364       C  0.02847899  0.90479217  0.72173983    -0.26600
C2365       C  0.06152009  0.89750771  0.73537101    -0.15800
C2366       C  0.07328082  0.86289818  0.73893008     0.36500
N2367       N  0.10626128  0.85526507  0.75492658    -0.90100
H2368       H  0.06319500  0.80950040  0.72571714     0.17600
H2369       H  0.01932120  0.93154678  0.71976935     0.17600
N2370       N  0.97771219  0.88661884  0.68809333    -0.89100
H2371       H  0.12181390  0.84232934  0.73649467     0.35000
H2372       H  0.10180955  0.83809415  0.77561298     0.40100
H2373       H  0.95789594  0.87034300  0.69737723     0.39700
H2374       H  0.98128712  0.88151880  0.66149742     0.34600
C2375       C  0.96448927  0.65640335  0.72764976    -0.27100
C2376       C  0.98377881  0.64915124  0.69769015    -0.15200
C2377       C  0.98904674  0.61455708  0.68606181     0.35400
C2378       C  0.97147359  0.58762495  0.70255613    -0.26600
C2379       C  0.94811552  0.59565957  0.72919565    -0.15800
C2380       C  0.94573779  0.62963799  0.74314695     0.36500
N2381       N  0.92225508  0.63737191  0.77113865    -0.90100
H2382       H  0.96057996  0.68317954  0.73634064     0.17600
H2383       H  0.97328515  0.56120553  0.69223414     0.17600
N2384       N  0.00985570  0.60721781  0.65582562    -0.89100
H2385       H  0.90427678  0.65596334  0.76228032     0.35000
H2386       H  0.93669782  0.64862894  0.79161694     0.40100
H2387       H  0.99393373  0.59488233  0.63712535     0.39700
H2388       H  0.02948571  0.58963449  0.66303999     0.34600
C2389       C  0.08727462  0.70766933  0.52685178    -0.27100
C2390       C  0.09681842  0.73127275  0.55312147    -0.15200
C2391       C  0.13210480  0.74056853  0.55859050     0.35400
C2392       C  0.15774909  0.72364592  0.53955592    -0.26600
C2393       C  0.14841992  0.69639051  0.51706388    -0.15800
C2394       C  0.11301217  0.68921407  0.50933931     0.36500
N2395       N  0.10259638  0.66178749  0.48585020    -0.90100
H2396       H  0.06006358  0.70069106  0.52279565     0.17600
H2397       H  0.18502720  0.72904445  0.54528711     0.17600
N2398       N  0.14263397  0.76536410  0.58478663    -0.89100
H2399       H  0.11085782  0.63804741  0.49630707     0.35000
H2400       H  0.11495731  0.66568277  0.46184345     0.40100
H2401       H  0.12886847  0.78857259  0.58052071     0.39700
H2402       H  0.13610961  0.75555004  0.60932031     0.34600
C2403       C  0.91034827  0.79235026  0.52885072    -0.27100
C2404       C  0.90210205  0.77052765  0.55655160    -0.15200
C2405       C  0.86737456  0.76166919  0.56409428     0.35400
C2406       C  0.84060566  0.77823470  0.54618600    -0.26600
C2407       C  0.84889756  0.80398805  0.52208306    -0.15800
C2408       C  0.88376006  0.80986217  0.51180185     0.36500
N2409       N  0.89288734  0.83500990  0.48589520    -0.90100
H2410       H  0.93734920  0.79868850  0.52309173     0.17600
H2411       H  0.81368478  0.77356071  0.55360589     0.17600
N2412       N  0.85938893  0.73739746  0.59119234    -0.89100
H2413       H  0.88601075  0.85978204  0.49513905     0.35000
H2414       H  0.87862030  0.82939281  0.46312551     0.40100
H2415       H  0.84440445  0.71733596  0.57997772     0.39700
H2416       H  0.84401527  0.75023933  0.60984041     0.34600
C2417       C  0.17940224  0.79200799  0.68820630    -0.27100
C2418       C  0.18651538  0.76639499  0.71343947    -0.15200
C2419       C  0.15848800  0.74618226  0.72602240     0.35400
C2420       C  0.12475269  0.74985308  0.71156134    -0.26600
C2421       C  0.11771250  0.77392902  0.68470864    -0.15800
C2422       C  0.14531939  0.79622564  0.67411914     0.36500
N2423       N  0.13886549  0.82361373  0.64957159    -0.90100
H2424       H  0.20040274  0.80867338  0.67925750     0.17600
H2425       H  0.10415775  0.73289341  0.72087373     0.17600
N2426       N  0.16430097  0.72157267  0.75355438    -0.89100
H2427       H  0.14453709  0.84741181  0.66200340     0.35000
H2428       H  0.15640381  0.82070220  0.62887289     0.40100
H2429       H  0.15652323  0.69686355  0.74461242     0.39700
H2430       H  0.14811720  0.72840239  0.77448605     0.34600
C2431       C  0.04365208  0.60811905  0.57776372    -0.27100
C2432       C  0.02147237  0.63565771  0.56738355    -0.15200
C2433       C  0.99636630  0.62819888  0.54069178     0.35400
C2434       C  0.99375626  0.59441670  0.52613261    -0.26600
C2435       C  0.01516950  0.56677784  0.53715265    -0.15800
C2436       C  0.04087364  0.57404837  0.56323326     0.36500
N2437       N  0.06383259  0.54759107  0.57659381    -0.90100
H2438       H  0.06291747  0.61280811  0.59815083     0.17600
H2439       H  0.97405615  0.58947509  0.50619829     0.17600
N2440       N  0.97206162  0.65386650  0.52840950    -0.89100
H2441       H  0.08939644  0.55474107  0.57024112     0.35000
H2442       H  0.05906617  0.52351268  0.56463508     0.40100
H2443       H  0.98596723  0.67479108  0.51784221     0.39700
H2444       H  0.95688871  0.66255893  0.54942178     0.34600
C2445       C  0.88084292  0.74971296  0.71479775    -0.27100
C2446       C  0.88564966  0.72645234  0.68641885    -0.15200
C2447       C  0.85655202  0.70609316  0.67552015     0.35400
C2448       C  0.82315066  0.71193282  0.69040841    -0.26600
C2449       C  0.81827273  0.73666469  0.71735908    -0.15800
C2450       C  0.84802391  0.75445403  0.73055237     0.36500
N2451       N  0.84568516  0.77745554  0.76022180    -0.90100
H2452       H  0.90267495  0.76503230  0.72458073     0.17600
H2453       H  0.80096532  0.69709754  0.68080053     0.17600
N2454       N  0.86088471  0.67873290  0.65014804    -0.89100
H2455       H  0.83631080  0.76311956  0.78139767     0.35000
H2456       H  0.82767897  0.79716350  0.75470217     0.40100
H2457       H  0.84253731  0.68238904  0.63019063     0.39700
H2458       H  0.85475376  0.65508889  0.66225441     0.34600
C2459       C  0.87191474  0.95843204  0.50478406    -0.27100
C2460       C  0.86623456  0.93277389  0.47875492    -0.15200
C2461       C  0.89469343  0.92364672  0.45698233     0.35400
C2462       C  0.92798509  0.93902764  0.46257462    -0.26600
C2463       C  0.93361264  0.96396121  0.48929028    -0.15800
C2464       C  0.90471811  0.97423188  0.51014784     0.36500
N2465       N  0.90751817  0.00030666  0.53739710    -0.90100
H2466       H  0.85070858  0.96598293  0.52194661     0.17600
H2467       H  0.94959014  0.93138593  0.44596836     0.17600
N2468       N  0.88991227  0.89920779  0.42880900    -0.89100
H2469       H  0.89099636  0.02100827  0.53071898     0.35000
H2470       H  0.93261598  0.01080541  0.53934986     0.40100
H2471       H  0.90811153  0.87907007  0.43186085     0.39700
H2472       H  0.89577150  0.91202899  0.40547556     0.34600
C2473       C  0.09399069  0.01989675  0.50356249    -0.27100
C2474       C  0.06503956  0.03633871  0.51882906    -0.15200
C2475       C  0.07019870  0.06868566  0.53603779     0.35400
C2476       C  0.10398220  0.08386858  0.53765550    -0.26600
C2477       C  0.13306898  0.06777998  0.52159113    -0.15800
C2478       C  0.12738795  0.03542690  0.50396777     0.36500
N2479       N  0.15500531  0.01868424  0.48500478    -0.90100
H2480       H  0.09032595  0.99527158  0.48978895     0.17600
H2481       H  0.10719882  0.10885120  0.55082520     0.17600
N2482       N  0.04117014  0.08642726  0.55155228    -0.89100
H2483       H  0.14739894  0.01680150  0.45872882     0.35000
H2484       H  0.15788214  0.99327828  0.49452661     0.40100
H2485       H  0.03906593  0.11103431  0.53997120     0.39700
H2486       H  0.04681040  0.09025321  0.57810616     0.34600
C2487       C  0.06610637  0.96111286  0.57265053    -0.27100
C2488       C  0.03752267  0.98398558  0.56905887    -0.15200
C2489       C  0.02527944  0.00127879  0.59925390     0.35400
C2490       C  0.04221912  0.99678768  0.63180556    -0.26600
C2491       C  0.07176833  0.97502335  0.63565381    -0.15800
C2492       C  0.08303652  0.95620361  0.60536229     0.36500
N2493       N  0.11084313  0.93121097  0.60695716    -0.90100
H2494       H  0.07543154  0.94701554  0.54984632     0.17600
H2495       H  0.03246382  0.01135161  0.65413129     0.17600
N2496       N  0.99548161  0.02381038  0.59688512    -0.89100
H2497       H  0.10482987  0.91281635  0.62613879     0.35000
H2498       H  0.13395864  0.94394439  0.61395391     0.40100
H2499       H  0.00285028  0.04865494  0.60581169     0.39700
H2500       H  0.97630653  0.01427635  0.61373216     0.34600
C2501       C  0.99286141  0.09291955  0.47888505    -0.27100
C2502       C  0.01410384  0.06519775  0.46767482    -0.15200
C2503       C  0.03900598  0.07180935  0.44113214     0.35400
C2504       C  0.04214889  0.10585848  0.42719450    -0.26600
C2505       C  0.02001538  0.13349040  0.43769495    -0.15800
C2506       C  0.99467987  0.12620687  0.46383320     0.36500
N2507       N  0.96925209  0.15141402  0.47489755    -0.90100
H2508       H  0.97395130  0.08846902  0.49938933     0.17600
H2509       H  0.06135712  0.11037347  0.40697859     0.17600
N2510       N  0.06058989  0.04460129  0.42674851    -0.89100
H2511       H  0.95461444  0.15930646  0.45316526     0.35000
H2512       H  0.98204316  0.17290928  0.48612318     0.40100
H2513       H  0.05501214  0.02038994  0.43785659     0.39700
H2514       H  0.08655140  0.05059988  0.43298734     0.34600
C2515       C  0.96057111  0.92893965  0.56722676    -0.27100
C2516       C  0.98494973  0.93391413  0.54016233    -0.15200
C2517       C  0.00454197  0.90448000  0.52872793     0.35400
C2518       C  0.00047559  0.87196990  0.54539030    -0.26600
C2519       C  0.97695357  0.86697072  0.57321192    -0.15800
C2520       C  0.95612014  0.89589052  0.58340805     0.36500
N2521       N  0.92993028  0.89182886  0.60969502    -0.90100
H2522       H  0.94499659  0.95088495  0.57607552     0.17600
H2523       H  0.01672495  0.85042588  0.53670268     0.17600
N2524       N  0.02934927  0.90647575  0.50060002    -0.89100
H2525       H  0.90571524  0.89773704  0.59838412     0.35000
H2526       H  0.93468110  0.91029091  0.62946188     0.40100
H2527       H  0.03072707  0.93144036  0.48989580     0.39700
H2528       H  0.02050668  0.88992282  0.48052617     0.34600
C2529       C  0.96939607  0.15492694  0.27606254    -0.27100
C2530       C  0.98634724  0.14802676  0.30756275    -0.15200
C2531       C  0.99136587  0.11349240  0.31905567     0.35400
C2532       C  0.97545053  0.08631730  0.30080602    -0.26600
C2533       C  0.95355962  0.09403969  0.27273909    -0.15800
C2534       C  0.95193022  0.12805913  0.25894499     0.36500
N2535       N  0.93000022  0.13647050  0.22984236    -0.90100
H2536       H  0.96585421  0.18161738  0.26734334     0.17600
H2537       H  0.97714843  0.05993016  0.31083188     0.17600
N2538       N  0.01022094  0.10635747  0.35066266    -0.89100
H2539       H  0.90423253  0.13159336  0.23716602     0.35000
H2540       H  0.93649369  0.11997408  0.20891763     0.40100
H2541       H  0.03058910  0.08914570  0.34465234     0.39700
H2542       H  0.99330671  0.09364644  0.36785191     0.34600
C2543       C  0.78153173  0.04486836  0.16162284    -0.27100
C2544       C  0.80396059  0.01749488  0.15338512    -0.15200
C2545       C  0.80604715  0.00418651  0.11892502     0.35400
C2546       C  0.78864347  0.02159468  0.09225802    -0.26600
C2547       C  0.77065855  0.05239389  0.10000841    -0.15800
C2548       C  0.76521477  0.06299788  0.13489655     0.36500
N2549       N  0.74504324  0.09347363  0.14302441    -0.90100
H2550       H  0.77944889  0.05440990  0.18831406     0.17600
H2551       H  0.79231966  0.01333229  0.06531018     0.17600
N2552       N  0.82741315  0.97471539  0.11014858    -0.89100
H2553       H  0.76121857  0.11131379  0.15623036     0.35000
H2554       H  0.72520953  0.08606126  0.16018508     0.40100
H2555       H  0.81996495  0.95373311  0.12583877     0.39700
H2556       H  0.85337281  0.98107724  0.11578408     0.34600
C2557       C  0.77865225  0.95438587  0.33956216    -0.27100
C2558       C  0.80471912  0.97853010  0.34782066    -0.15200
C2559       C  0.80981128  0.99014999  0.38263316     0.35400
C2560       C  0.79133892  0.97431157  0.40926081    -0.26600
C2561       C  0.76917285  0.94649295  0.40128499    -0.15800
C2562       C  0.76105002  0.93769555  0.36641648     0.36500
N2563       N  0.73661150  0.91038996  0.35847195    -0.90100
H2564       H  0.77441307  0.94607280  0.31270430     0.17600
H2565       H  0.79727456  0.98100746  0.43628374     0.17600
N2566       N  0.83529438  0.01601639  0.39184304    -0.89100
H2567       H  0.74954833  0.89109665  0.34395048     0.35000
H2568       H  0.71696651  0.92094534  0.34263650     0.40100
H2569       H  0.83059658  0.03835555  0.37692309     0.39700
H2570       H  0.85987709  0.00600596  0.38573787     0.34600
C2571       C  0.94238050  0.86697804  0.24469546    -0.27100
C2572       C  0.95389008  0.90049219  0.23581593    -0.15200
C2573       C  0.98480575  0.90519642  0.21676056     0.35400
C2574       C  0.99924576  0.87635078  0.20026741    -0.26600
C2575       C  0.98348207  0.84364341  0.20397125    -0.15800
C2576       C  0.95758460  0.83791877  0.22902302     0.36500
N2577       N  0.94474473  0.80333401  0.23572038    -0.90100
H2578       H  0.91946489  0.86376383  0.26094668     0.17600
H2579       H  0.02043064  0.87996959  0.18187059     0.17600
N2580       N  0.99998683  0.93888678  0.21118765    -0.89100
H2581       H  0.92483842  0.80407657  0.25436866     0.35000
H2582       H  0.96526736  0.78898897  0.24668034     0.40100
H2583       H  0.00521904  0.95027532  0.23562073     0.39700
H2584       H  0.98191066  0.95436707  0.19801664     0.34600
C2585       C  0.83832307  0.85208178  0.28743586    -0.27100
C2586       C  0.82164344  0.88230525  0.27457270    -0.15200
C2587       C  0.78728872  0.87839442  0.26096829     0.35400
C2588       C  0.77130684  0.84514457  0.25934366    -0.26600
C2589       C  0.78862505  0.81476955  0.27043521    -0.15800
C2590       C  0.82254040  0.81860789  0.28541955     0.36500
N2591       N  0.84174226  0.78942272  0.29907914    -0.90100
H2592       H  0.86445654  0.85417854  0.29829376     0.17600
H2593       H  0.74539829  0.84286382  0.24792681     0.17600
N2594       N  0.76853961  0.90797174  0.24783421    -0.89100
H2595       H  0.86463932  0.78681114  0.28438933     0.35000
H2596       H  0.82784628  0.76621266  0.29610794     0.40100
H2597       H  0.74511334  0.91010774  0.26167422     0.39700
H2598       H  0.76240838  0.90313845  0.22153606     0.34600
C2599       C  0.79013998  0.11796851  0.24804031    -0.27100
C2600       C  0.82008622  0.11385825  0.22705569    -0.15200
C2601       C  0.83150620  0.14340447  0.20804143     0.35400
C2602       C  0.81539407  0.17643957  0.21315885    -0.26600
C2603       C  0.78662687  0.18073776  0.23558920    -0.15800
C2604       C  0.77303078  0.15043423  0.25201504     0.36500
N2605       N  0.74226409  0.15148227  0.27350650    -0.90100
H2606       H  0.78003597  0.09576224  0.26226085     0.17600
H2607       H  0.82569007  0.19893877  0.19966259     0.17600
N2608       N  0.85886422  0.14003899  0.18281866    -0.89100
H2609       H  0.72342879  0.13553943  0.26150428     0.35000
H2610       H  0.73142763  0.17647407  0.27483966     0.40100
H2611       H  0.87789144  0.15887225  0.18852445     0.39700
H2612       H  0.84834456  0.14616701  0.15830656     0.34600
C2613       C  0.92143274  0.04083193  0.39669067    -0.27100
C2614       C  0.93481704  0.02092599  0.36852239    -0.15200
C2615       C  0.96335035  0.99838211  0.37574692     0.35400
C2616       C  0.97712389  0.99587338  0.40997230    -0.26600
C2617       C  0.96292470  0.01462899  0.43824198    -0.15800
C2618       C  0.93437598  0.03738298  0.43134969     0.36500
N2619       N  0.91743061  0.05689517  0.45869106    -0.90100
H2620       H  0.89969354  0.05837013  0.39206501     0.17600
H2621       H  0.99886450  0.97832141  0.41468279     0.17600
N2622       N  0.97803155  0.97696700  0.34866162    -0.89100
H2623       H  0.89136851  0.04868050  0.45948032     0.35000
H2624       H  0.92805341  0.05096122  0.48310868     0.40100
H2625       H  0.97572923  0.95081565  0.35613718     0.39700
H2626       H  0.00463622  0.98291464  0.34678158     0.34600
C2627       C  0.12737957  0.25693749  0.94335103    -0.27100
C2628       C  0.09393982  0.26971586  0.95084606    -0.15200
C2629       C  0.08931756  0.29625878  0.97606985     0.35400
C2630       C  0.11853438  0.31472585  0.98728235    -0.26600
C2631       C  0.15167930  0.30517216  0.97536045    -0.15800
C2632       C  0.15667913  0.27442026  0.95608913     0.36500
N2633       N  0.19107090  0.26260453  0.94730464    -0.90100
H2634       H  0.13072568  0.23557411  0.92496347     0.17600
H2635       H  0.11529953  0.33726779  0.00435229     0.17600
N2636       N  0.05583900  0.30531779  0.99025005    -0.89100
H2637       H  0.19282509  0.26122253  0.92003267     0.35000
H2638       H  0.19403065  0.23727478  0.95700387     0.40100
H2639       H  0.03625752  0.28883457  0.98061631     0.39700
H2640       H  0.05009326  0.33093742  0.98298915     0.34600
C2641       C  0.00407421  0.12347942  0.79986138    -0.27100
C2642       C  0.01838906  0.15675054  0.79468491    -0.15200
C2643       C  0.04613998  0.16162779  0.77149147     0.35400
C2644       C  0.06315294  0.13212927  0.75841705    -0.26600
C2645       C  0.05191538  0.09854309  0.76774109    -0.15800
C2646       C  0.02061712  0.09406138  0.78627903     0.36500
N2647       N  0.00693240  0.06022050  0.79427552    -0.90100
H2648       H  0.98218686  0.12012477  0.81746450     0.17600
H2649       H  0.08680584  0.13528412  0.74328359     0.17600
N2650       N  0.05871902  0.19615293  0.76398747    -0.89100
H2651       H  0.02548507  0.04667985  0.80895180     0.35000
H2652       H  0.00272521  0.04669417  0.77075836     0.40100
H2653       H  0.03880962  0.20936342  0.75070488     0.39700
H2654       H  0.08006950  0.19498346  0.74702666     0.34600
C2655       C  0.95397166  0.34209903  0.77498689    -0.27100
C2656       C  0.97676377  0.35005373  0.80249574    -0.15200
C2657       C  0.98674459  0.38498781  0.80957217     0.35400
C2658       C  0.97038924  0.41177129  0.79166264    -0.26600
C2659       C  0.94382639  0.40379148  0.76793418    -0.15800
C2660       C  0.93698746  0.36910615  0.75751911     0.36500
N2661       N  0.91101201  0.36166833  0.73119437    -0.90100
H2662       H  0.94705635  0.31511670  0.76942239     0.17600
H2663       H  0.97568275  0.43871022  0.79905099     0.17600
N2664       N  0.01151128  0.39405833  0.83630737    -0.89100
H2665       H  0.90864766  0.33470091  0.72715621     0.35000
H2666       H  0.91988286  0.37221132  0.70765900     0.40100
H2667       H  0.03462679  0.38024493  0.83168120     0.39700
H2668       H  0.00123251  0.38672610  0.86039355     0.34600
C2669       C  0.87028872  0.24201240  0.94310798    -0.27100
C2670       C  0.90382160  0.22919787  0.94987310    -0.15200
C2671       C  0.90988754  0.20565270  0.97707177     0.35400
C2672       C  0.88123222  0.19072924  0.99350475    -0.26600
C2673       C  0.84736390  0.19973972  0.98282837    -0.15800
C2674       C  0.84166570  0.22736798  0.95973577     0.36500
N2675       N  0.80701563  0.23820435  0.95070485    -0.90100
H2676       H  0.86614497  0.26110999  0.92273076     0.17600
H2677       H  0.88533238  0.16978681  0.01207406     0.17600
N2678       N  0.94458950  0.19478881  0.98592297    -0.89100
H2679       H  0.80420202  0.23570882  0.92358107     0.35000
H2680       H  0.80472288  0.26476045  0.95696098     0.40100
H2681       H  0.94565247  0.16758830  0.98338167     0.39700
H2682       H  0.94892241  0.20091819  0.01230045     0.34600
C2683       C  0.12122190  0.25476900  0.78976070    -0.27100
C2684       C  0.11611401  0.23136192  0.81762524    -0.15200
C2685       C  0.14512391  0.21047655  0.82794241     0.35400
C2686       C  0.17785844  0.21444850  0.81147590    -0.26600
C2687       C  0.18288092  0.23834444  0.78415953    -0.15800
C2688       C  0.15374211  0.25844960  0.77297116     0.36500
N2689       N  0.15609069  0.28339626  0.74504411    -0.90100
H2690       H  0.09977073  0.27111986  0.78111769     0.17600
H2691       H  0.19970849  0.19894128  0.82045783     0.17600
N2692       N  0.14226598  0.18455027  0.85462162    -0.89100
H2693       H  0.13944711  0.27490244  0.72492597     0.35000
H2694       H  0.18109500  0.28448468  0.73435612     0.40100
H2695       H  0.12193189  0.16744945  0.84787107     0.39700
H2696       H  0.13646541  0.19683044  0.87833061     0.34600
C2697       C  0.99203109  0.40970022  0.97227757    -0.27100
C2698       C  0.01468778  0.43637491  0.96162644    -0.15200
C2699       C  0.03995964  0.42857035  0.93568995     0.35400
C2700       C  0.04204002  0.39428822  0.92175374    -0.26600
C2701       C  0.01875944  0.36763198  0.93193893    -0.15800
C2702       C  0.99336715  0.37599725  0.95771912     0.36500
N2703       N  0.96756138  0.35140401  0.96894669    -0.90100
H2704       H  0.97240234  0.41539922  0.99188854     0.17600
H2705       H  0.06143193  0.38876639  0.90189162     0.17600
N2706       N  0.06332611  0.45465248  0.92232478    -0.89100
H2707       H  0.98007931  0.33011044  0.98050774     0.35000
H2708       H  0.95306903  0.34298015  0.94718588     0.40100
H2709       H  0.05838582  0.47911311  0.93349473     0.39700
H2710       H  0.05809101  0.45719473  0.89557822     0.34600
C2711       C  0.87531888  0.25351803  0.78936575    -0.27100
C2712       C  0.87943007  0.27275982  0.82068149    -0.15200
C2713       C  0.84925882  0.28895352  0.83492456     0.35400
C2714       C  0.81628464  0.28500657  0.81824107    -0.26600
C2715       C  0.81236057  0.26505838  0.78741001    -0.15800
C2716       C  0.84264462  0.24939062  0.77271333     0.36500
N2717       N  0.84128389  0.22786931  0.74166382    -0.90100
H2718       H  0.89771171  0.24052723  0.77789240     0.17600
H2719       H  0.79347136  0.29720401  0.82976487     0.17600
N2720       N  0.85170608  0.30931961  0.86641817    -0.89100
H2721       H  0.85780269  0.23891796  0.72307478     0.35000
H2722       H  0.81636017  0.22721703  0.73048479     0.40100
H2723       H  0.83431729  0.29880066  0.88456363     0.39700
H2724       H  0.84331499  0.33469190  0.86077893     0.34600
C2725       C  0.90572781  0.02100372  0.00314695    -0.27100
C2726       C  0.93588140  0.03826227  0.01530783    -0.15200
C2727       C  0.93156541  0.07083881  0.03289875     0.35400
C2728       C  0.89778318  0.08584557  0.03588592    -0.26600
C2729       C  0.86756952  0.06897276  0.02266713    -0.15800
C2730       C  0.87204455  0.03556525  0.00694303     0.36500
N2731       N  0.84248921  0.01619722  0.99424837    -0.90100
H2732       H  0.90836882  0.99594137  0.99001238     0.17600
H2733       H  0.89532402  0.11127852  0.04829509     0.17600
N2734       N  0.96065921  0.08958062  0.04783783    -0.89100
H2735       H  0.84200098  0.99215267  0.00711171     0.35000
H2736       H  0.84603263  0.01133495  0.96753038     0.40100
H2737       H  0.98392370  0.07568603  0.04480732     0.39700
H2738       H  0.95645101  0.09148209  0.07480408     0.34600
C2739       C  0.04568680  0.99618272  0.87219155    -0.27100
C2740       C  0.07054340  0.02271802  0.86647730    -0.15200
C2741       C  0.07642534  0.04732173  0.89389988     0.35400
C2742       C  0.06007559  0.04292538  0.92665345    -0.26600
C2743       C  0.03643537  0.01540172  0.93260532    -0.15800
C2744       C  0.02814243  0.99266276  0.90422287     0.36500
N2745       N  0.00252534  0.96522160  0.90692148    -0.90100
H2746       H  0.03996933  0.97735558  0.85160759     0.17600
H2747       H  0.06590594  0.06121623  0.94765399     0.17600
N2748       N  0.09754389  0.07780835  0.88897333    -0.89100
H2749       H  0.98262287  0.97051162  0.88886396     0.35000
H2750       H  0.99069941  0.96481460  0.93144474     0.40100
H2751       H  0.08784032  0.09140469  0.86736376     0.39700
H2752       H  0.12321855  0.07027984  0.88387454     0.34600
C2753       C  0.03595151  0.89866346  0.08462468    -0.27100
C2754       C  0.02090457  0.86884594  0.06840480    -0.15200
C2755       C  0.00507800  0.87377103  0.03479616     0.35400
C2756       C  0.00469665  0.90699474  0.01914765    -0.26600
C2757       C  0.01819465  0.93673416  0.03609167    -0.15800
C2758       C  0.03444185  0.93226934  0.06900891     0.36500
N2759       N  0.04924954  0.96180938  0.08685481    -0.90100
H2760       H  0.04812285  0.89618929  0.11014766     0.17600
H2761       H  0.99203188  0.90994170  0.99388693     0.17600
N2762       N  0.98756442  0.84617585  0.01613946    -0.89100
H2763       H  0.07580258  0.95677034  0.09098024     0.35000
H2764       H  0.03733217  0.96394706  0.11134679     0.40100
H2765       H  0.96662122  0.83728111  0.03107769     0.39700
H2766       H  0.00496818  0.82570337  0.01131966     0.34600
C2767       C  0.07496292  0.94243709  0.95802058    -0.27100
C2768       C  0.06856566  0.96745258  0.98445432    -0.15200
C2769       C  0.09759194  0.97937742  0.00467419     0.35400
C2770       C  0.13092884  0.96429327  0.99976267    -0.26600
C2771       C  0.13711614  0.93828402  0.97423359    -0.15800
C2772       C  0.10883990  0.92869772  0.95210841     0.36500
N2773       N  0.11441694  0.90532024  0.92321842    -0.90100
H2774       H  0.05354720  0.93334720  0.94177924     0.17600
H2775       H  0.15209774  0.97264662  0.01681542     0.17600
N2776       N  0.09441381  0.00654973  0.03072208    -0.89100
H2777       H  0.10760188  0.91847342  0.90026934     0.35000
H2778       H  0.09748732  0.88404994  0.92570882     0.40100
H2779       H  0.06900359  0.01628081  0.03231538     0.39700
H2780       H  0.11005926  0.02746185  0.02284645     0.34600
C2781       C  0.97685323  0.00713288  0.09287618    -0.27100
C2782       C  0.96532289  0.98639817  0.06468940    -0.15200
C2783       C  0.93873133  0.96134366  0.07102289     0.35400
C2784       C  0.92469989  0.95791085  0.10512783    -0.26600
C2785       C  0.93601072  0.97904061  0.13348973    -0.15800
C2786       C  0.96283833  0.00395363  0.12664422     0.36500
N2787       N  0.97598694  0.02741418  0.15298551    -0.90100
H2788       H  0.99715901  0.02638233  0.08853004     0.17600
H2789       H  0.90426673  0.93878464  0.10928747     0.17600
N2790       N  0.92510285  0.93916569  0.04365825    -0.89100
H2791       H  0.98702837  0.01291730  0.17329134     0.35000
H2792       H  0.95540234  0.04268978  0.16247815     0.40100
H2793       H  0.93715249  0.94413730  0.01976231     0.39700
H2794       H  0.89867637  0.94536683  0.04038146     0.34600
C2795       C  0.95983017  0.10318964  0.91444690    -0.27100
C2796       C  0.97923031  0.13227619  0.92675708    -0.15200
C2797       C  0.00128981  0.12714698  0.95624349     0.35400
C2798       C  0.00333990  0.09430780  0.97246583    -0.26600
C2799       C  0.98422157  0.06536673  0.96033825    -0.15800
C2800       C  0.96196956  0.06997044  0.93080793     0.36500
N2801       N  0.94183201  0.04160376  0.91627209    -0.90100
H2802       H  0.94308892  0.10611351  0.89169930     0.17600
H2803       H  0.02101147  0.09115501  0.99448060     0.17600
N2804       N  0.02266573  0.15502769  0.96958043    -0.89100
H2805       H  0.91542845  0.04805357  0.91902555     0.35000
H2806       H  0.94573850  0.01858627  0.93027748     0.40100
H2807       H  0.04879075  0.14709076  0.96836794     0.39700
H2808       H  0.01630464  0.15913082  0.99587462     0.34600
loop_ 
_geom_bond_atom_site_label_1 
_geom_bond_atom_site_label_2 
_geom_bond_distance 
_geom_bond_site_symmetry_2 
_ccdc_geom_bond_type 
C1            C2   1.432   1_554  A
C1            C6   1.434   1_545  A
C1         C2726   1.515       .  S
C2            C3   1.430   1_655  A
C2         C2799   1.513       .  S
C3            C4   1.431   1_545  A
C3         C2743   1.508       .  S
C4            C5   1.432   1_556  A
C4         C2768   1.516       .  S
C5            C6   1.434   1_455  A
C5         C2757   1.514       .  S
C6         C2782   1.512       .  S
O7           C15   1.276       .  A
O7          Co27   2.019       .  S
O8           C16   1.275       .  A
O8          Co28   2.016       .  S
O9           C17   1.258       .  A
O9          Co29   1.976       .  S
O10          C18   1.258       .  A
O10         Co30   1.973       .  S
O11          C17   1.267       .  A
O11         Co28   2.053       .  S
O12          C18   1.267       .  A
O12         Co27   2.050       .  S
O13          C16   1.259   1_455  A
O13         Co30   1.935       .  S
O14          C15   1.256   1_655  A
O14         Co29   1.936       .  S
C15        C2642   1.442       .  S
C16        C2656   1.439       .  S
C17        C2712   1.513       .  S
C18        C2684   1.515       .  S
O19          C32   1.254       .  A
O19         Co27   1.931       .  S
O20          C33   1.254       .  A
O20         Co28   1.929       .  S
O21          C34   1.269       .  A
O21         Co29   2.067       .  S
O22          C35   1.264       .  A
O22         Co30   2.039       .  S
O23          C35   1.254       .  A
O23         Co28   1.963   1_455  S
O24          C34   1.253       .  A
O24         Co27   1.963   1_655  S
O25          C32   1.277       .  A
O25         Co30   2.020       .  S
O26          C33   1.277       .  A
O26         Co29   2.018       .  S
Co27         O31   2.097   1_455  S
Co28         O31   2.104       .  S
Co29         O31   2.111       .  S
Co30         O31   2.106   1_455  S
C32        C2628   1.439       .  S
C33        C2670   1.435       .  S
C34        C2796   1.516       .  S
C35        C2701   1.506       .  S
O36          C44   1.273       .  A
O36         Co56   2.015       .  S
O37          C45   1.272       .  A
O37         Co57   2.012       .  S
O38          C46   1.256       .  A
O38         Co58   1.972       .  S
O39          C47   1.258       .  A
O39         Co59   1.974       .  S
O40          C46   1.271       .  A
O40         Co57   2.064       .  S
O41          C47   1.270       .  A
O41         Co56   2.058       .  S
O42          C45   1.255   1_545  A
O42         Co59   1.933       .  S
O43          C44   1.253   1_565  A
O43         Co58   1.925       .  S
C44        C2544   1.433       .  S
C45        C2558   1.437       .  S
C46        C2586   1.515       .  S
C47        C2600   1.516       .  S
O48          C61   1.252       .  A
O48         Co56   1.925       .  S
O49          C62   1.250       .  A
O49         Co57   1.927       .  S
O50          C63   1.269       .  A
O50         Co58   2.063       .  S
O51          C64   1.270       .  A
O51         Co59   2.061       .  S
O52          C64   1.256       .  A
O52         Co57   1.969   1_545  S
O53          C63   1.253       .  A
O53         Co56   1.961   1_565  S
O54          C61   1.273       .  A
O54         Co59   2.012       .  S
O55          C62   1.274       .  A
O55         Co58   2.009       .  S
Co56         O60   2.106   1_545  S
Co57         O60   2.109       .  S
Co58         O60   2.110       .  S
Co59         O60   2.107   1_545  S
C61        C2533   1.432       .  S
C62        C2572   1.434       .  S
C63        C2785   1.518       .  S
C64        C2614   1.517       .  S
C65          C66   1.430       .  A
C65          C70   1.431   1_545  A
C65        C2474   1.506       .  S
C66          C67   1.427   1_455  A
C66        C2502   1.508       .  S
C67          C68   1.429   1_545  A
C67        C2617   1.515       .  S
C68          C69   1.433       .  A
C68        C2463   1.505       .  S
C69          C70   1.431   1_655  A
C69        C2516   1.514       .  S
C70        C2488   1.513       .  S
O71          C79   1.273       .  A
O71         Co91   2.011       .  S
O72          C80   1.270       .  A
O72         Co92   1.997       .  S
O73          C81   1.257       .  A
O73         Co93   1.971       .  S
O74          C82   1.261       .  A
O74         Co94   1.974       .  S
O75          C81   1.271       .  A
O75         Co92   2.062       .  S
O76          C82   1.269       .  A
O76         Co91   2.049       .  S
O77          C80   1.256   1_455  A
O77         Co94   1.933       .  S
O78          C79   1.251   1_655  A
O78         Co93   1.922       .  S
C79        C2362   1.428       .  S
C80        C2376   1.431       .  S
C81        C2446   1.511       .  S
C82        C2421   1.509       .  S
O83          C96   1.256       .  A
O83         Co91   1.934       .  S
O84          C97   1.252       .  A
O84         Co92   1.923       .  S
O85          C98   1.273       .  A
O85         Co93   2.070       .  S
O86          C99   1.271       .  A
O86         Co94   2.062       .  S
O87          C99   1.255       .  A
O87         Co92   1.967   1_455  S
O88          C98   1.257       .  A
O88         Co91   1.968   1_655  S
O89          C96   1.270       .  A
O89         Co94   2.000       .  S
O90          C97   1.270       .  A
O90         Co93   2.001       .  S
Co91         O95   2.102       .  S
Co92         O95   2.101   1_655  S
Co93         O95   2.110   1_655  S
Co94         O95   2.110       .  S
C96        C2390   1.433       .  S
C97        C2404   1.426       .  S
C98        C2519   1.516       .  S
C99        C2432   1.515       .  S
O100        C108   1.267       .  A
O100       Co120   1.986       .  S
O101        C109   1.270       .  A
O101       Co121   2.007       .  S
O102        C110   1.256       .  A
O102       Co122   1.966       .  S
O103        C111   1.256       .  A
O103       Co123   1.969       .  S
O104        C110   1.272       .  A
O104       Co121   2.062       .  S
O105        C111   1.274       .  A
O105       Co120   2.074       .  S
O106        C109   1.250   1_554  A
O106       Co123   1.931       .  S
O107        C108   1.256   1_556  A
O107       Co122   1.938       .  S
C108       C2267   1.437       .  S
C109       C2278   1.434       .  S
C110       C2320   1.514       .  S
C111       C2334   1.521       .  S
O112        C125   1.253       .  A
O112       Co120   1.924       .  S
O113        C126   1.249       .  A
O113       Co121   1.923       .  S
O114        C127   1.271       .  A
O114       Co122   2.052       .  S
O115        C128   1.275       .  A
O115       Co123   2.082       .  S
O116        C128   1.252       .  A
O116       Co121   1.962   1_554  S
O117        C127   1.262       .  A
O117       Co120   1.981   1_556  S
O118        C125   1.268       .  A
O118       Co123   1.997       .  S
O119        C126   1.271       .  A
O119       Co122   2.012       .  S
Co120       O124   2.111   1_554  S
Co121       O124   2.100       .  S
Co122       O124   2.105       .  S
Co123       O124   2.109   1_554  S
C125       C2292   1.428       .  S
C126       C2306   1.434       .  S
C127       C2771   1.514       .  S
C128       C2348   1.522       .  S
O129        C137   1.246   1_455  A
O129       Co149   1.918       .  S
O130        C138   1.255   1_655  A
O130       Co150   1.925       .  S
O131        C139   1.268       .  A
O131       Co151   2.054       .  S
O132        C140   1.271       .  A
O132       Co152   2.068       .  S
O133        C139   1.257       .  A
O133       Co150   1.965       .  S
O134        C140   1.251       .  A
O134       Co149   1.965       .  S
O135        C138   1.272       .  A
O135       Co152   2.011       .  S
O136        C137   1.274       .  A
O136       Co151   2.016       .  S
C137       C2575   1.428       .  S
C138       C2211   1.431       .  S
C139       C2236   1.511       .  S
C140       C2250   1.520       .  S
O141        C154   1.273       .  A
O141       Co149   2.016       .  S
O142        C155   1.271       .  A
O142       Co150   2.005       .  S
O143        C156   1.253       .  A
O143       Co151   1.966   1_455  S
O144        C157   1.257       .  A
O144       Co152   1.973   1_655  S
O145        C157   1.267       .  A
O145       Co150   2.044       .  S
O146        C156   1.273       .  A
O146       Co149   2.077       .  S
O147        C154   1.253       .  A
O147       Co152   1.927       .  S
O148        C155   1.253       .  A
O148       Co151   1.925       .  S
Co149       O153   2.103   1_455  S
Co150       O153   2.108       .  S
Co151       O153   2.105       .  S
Co152       O153   2.113   1_455  S
C154       C2264   1.435       .  S
C155       C2197   1.429       .  S
C156       C2754   1.524       .  S
C157       C2222   1.507       .  S
C158        C159   1.432       .  A
C158        C163   1.428       .  A
C158       C2166   1.512       .  S
C159        C160   1.435       .  A
C159       C2253   1.513       .  S
C160        C161   1.435       .  A
C160       C2337   1.515       .  S
C161        C162   1.433       .  A
C161       C2152   1.513       .  S
C162        C163   1.430       .  A
C162       C2141   1.510       .  S
C163       C2180   1.513       .  S
O164        C172   1.256       .  A
O164       Co184   1.933       .  S
O165        C173   1.254       .  A
O165       Co185   1.939       .  S
O166        C174   1.269       .  A
O166       Co186   2.049       .  S
O167        C175   1.271       .  A
O167       Co187   2.061       .  S
O168        C174   1.259       .  A
O168       Co185   1.974       .  S
O169        C175   1.255       .  A
O169       Co184   1.969       .  S
O170        C173   1.273       .  A
O170       Co187   2.012       .  S
O171        C172   1.270       .  A
O171       Co186   2.002       .  S
C172       C2393   1.433       .  S
C173       C2085   1.442       .  S
C174       C2124   1.510       .  S
C175       C2183   1.515       .  S
O176        C189   1.274       .  A
O176       Co184   2.015       .  S
O177        C190   1.271       .  A
O177       Co185   2.007       .  S
O178        C191   1.257       .  A
O178       Co186   1.967       .  S
O179        C192   1.258       .  A
O179       Co187   1.972       .  S
O180        C192   1.273       .  A
O180       Co185   2.073       .  S
O181        C191   1.269       .  A
O181       Co184   2.054       .  S
O182        C189   1.250       .  A
O182       Co187   1.928       .  S
O183        C190   1.253       .  A
O183       Co186   1.923       .  S
Co184       O188   2.105       .  S
Co185       O188   2.108       .  S
Co186       O188   2.107       .  S
Co187       O188   2.106       .  S
C189       C2057   1.436       .  S
C190       C2068   1.426       .  S
C191       C2110   1.517       .  S
C192       C2099   1.523       .  S
C193        C194   1.433       .  A
C193        C198   1.431       .  A
C193       C2026   1.521       .  S
C194        C195   1.435       .  A
C194       C2127   1.511       .  S
C195        C196   1.428       .  A
C195       C2418   1.505       .  S
C196        C197   1.421       .  A
C196       C2012   1.509       .  S
C197        C198   1.428       .  A
C197       C2323   1.510       .  S
C198       C2043   1.496       .  S
O199        C207   1.276       .  A
O199       Co219   2.015       .  S
O200        C208   1.275       .  A
O200       Co220   2.011       .  S
O201        C209   1.252       .  A
O201       Co221   1.959       .  S
O202        C210   1.256       .  A
O202       Co222   1.968       .  S
O203        C209   1.270       .  A
O203       Co220   2.071       .  S
O204        C210   1.266       .  A
O204       Co219   2.050       .  S
O205        C208   1.250       .  A
O205       Co222   1.916       .  S
O206        C207   1.254       .  A
O206       Co221   1.930       .  S
C207       C2281   1.434       .  S
C208       C1942   1.424       .  S
C209       C1970   1.517       .  S
C210       C1998   1.507       .  S
O211        C224   1.255       .  A
O211       Co219   1.926       .  S
O212        C225   1.253       .  A
O212       Co220   1.927       .  S
O213        C226   1.264       .  A
O213       Co221   2.041       .  S
O214        C227   1.269       .  A
O214       Co222   2.062       .  S
O215        C227   1.257       .  A
O215       Co220   1.975       .  S
O216        C226   1.255       .  A
O216       Co219   1.964       .  S
O217        C224   1.273       .  A
O217       Co222   2.001       .  S
O218        C225   1.277       .  A
O218       Co221   2.016       .  S
Co219       O223   2.097       .  S
Co220       O223   2.107       .  S
Co221       O223   2.094       .  S
Co222       O223   2.098       .  S
C224       C1928   1.429       .  S
C225       C1956   1.436       .  S
C226       C2040   1.502       .  S
C227       C1984   1.517       .  S
C228        C229   1.430       .  A
C228        C233   1.430       .  A
C228       C1872   1.513       .  S
C229        C230   1.429       .  A
C229       C2715   1.508       .  S
C230        C231   1.430       .  A
C230       C1914   1.514       .  S
C231        C232   1.434       .  A
C231       C1900   1.506       .  S
C232        C233   1.432       .  A
C232       C1889   1.515       .  S
C233       C1861   1.510       .  S
O234        C242   1.274       .  A
O234       Co254   2.012       .  S
O235        C243   1.273       .  A
O235       Co255   2.012       .  S
O236        C244   1.257       .  A
O236       Co256   1.974       .  S
O237        C245   1.257       .  A
O237       Co257   1.971       .  S
O238        C244   1.271       .  A
O238       Co255   2.068       .  S
O239        C245   1.269       .  A
O239       Co254   2.059       .  S
O240        C243   1.253       .  A
O240       Co257   1.924       .  S
O241        C242   1.254       .  A
O241       Co256   1.930       .  S
C242       C2659   1.433       .  S
C243       C2379   1.429       .  S
C244       C1816   1.519       .  S
C245       C1830   1.512       .  S
O246        C259   1.252       .  A
O246       Co254   1.924       .  S
O247        C260   1.251       .  A
O247       Co255   1.928       .  S
O248        C261   1.269       .  A
O248       Co256   2.061       .  S
O249        C262   1.268       .  A
O249       Co257   2.057       .  S
O250        C262   1.256       .  A
O250       Co255   1.968       .  S
O251        C261   1.254       .  A
O251       Co254   1.967       .  S
O252        C259   1.274       .  A
O252       Co257   2.009       .  S
O253        C260   1.275       .  A
O253       Co256   2.014       .  S
Co254       O258   2.103       .  S
Co255       O258   2.106       .  S
Co256       O258   2.103       .  S
Co257       O258   2.106       .  S
C259       C1802   1.432       .  S
C260       C1788   1.434       .  S
C261       C1917   1.518       .  S
C262       C1844   1.512       .  S
O263        C271   1.255   1_455  A
O263       Co283   1.933       .  S
O264        C272   1.260   1_655  A
O264       Co284   1.948       .  S
O265        C273   1.271       .  A
O265       Co285   2.055       .  S
O266        C274   1.274       .  A
O266       Co286   2.074       .  S
O267        C273   1.259       .  A
O267       Co284   1.978       .  S
O268        C274   1.256       .  A
O268       Co283   1.968       .  S
O269        C272   1.270       .  A
O269       Co286   1.995       .  S
O270        C271   1.270       .  A
O270       Co285   1.999       .  S
C271       C2530   1.434       .  S
C272       C1735   1.450       .  S
C273       C1760   1.518       .  S
C274       C1774   1.518       .  S
O275        C288   1.274       .  A
O275       Co283   2.014       .  S
O276        C289   1.273       .  A
O276       Co284   2.014       .  S
O277        C290   1.254       .  A
O277       Co285   1.959   1_455  S
O278        C291   1.258       .  A
O278       Co286   1.972   1_655  S
O279        C291   1.269       .  A
O279       Co284   2.054       .  S
O280        C290   1.269       .  A
O280       Co283   2.057       .  S
O281        C288   1.248       .  A
O281       Co286   1.923       .  S
O282        C289   1.250       .  A
O282       Co285   1.918       .  S
Co283       O287   2.104       .  S
Co284       O287   2.108   1_655  S
Co285       O287   2.102   1_655  S
Co286       O287   2.108       .  S
C288       C1718   1.429       .  S
C289       C1707   1.427       .  S
C290       C2505   1.511       .  S
C291       C1749   1.508       .  S
C292        C293   1.429       .  A
C292        C297   1.432       .  A
C292       C1637   1.501       .  S
C293        C294   1.425       .  A
C293       C1777   1.518       .  S
C294        C295   1.431       .  A
C294       C1651   1.503       .  S
C295        C296   1.431       .  A
C295       C1676   1.511       .  S
C296        C297   1.433       .  A
C296       C1662   1.513       .  S
C297       C1693   1.515       .  S
O298        C306   1.254   1_554  A
O298       Co318   1.925       .  S
O299        C307   1.255   1_556  A
O299       Co319   1.936       .  S
O300        C308   1.268       .  A
O300       Co320   2.053       .  S
O301        C309   1.269       .  A
O301       Co321   2.053       .  S
O302        C308   1.258       .  A
O302       Co319   1.972       .  S
O303        C309   1.258       .  A
O303       Co318   1.978       .  S
O304        C307   1.275       .  A
O304       Co321   2.007       .  S
O305        C306   1.275       .  A
O305       Co320   2.015       .  S
C306       C2631   1.431       .  S
C307       C1578   1.436       .  S
C308       C1623   1.510       .  S
C309       C1690   1.518       .  S
O310        C323   1.274       .  A
O310       Co318   2.004       .  S
O311        C324   1.275       .  A
O311       Co319   2.015       .  S
O312        C325   1.256       .  A
O312       Co320   1.968   1_554  S
O313        C326   1.260       .  A
O313       Co321   1.975   1_556  S
O314        C326   1.267       .  A
O314       Co319   2.049       .  S
O315        C325   1.269       .  A
O315       Co318   2.055       .  S
O316        C323   1.257       .  A
O316       Co321   1.935       .  S
O317        C324   1.255       .  A
O317       Co320   1.937       .  S
Co318       O322   2.100   1_554  S
Co319       O322   2.099       .  S
Co320       O322   2.105       .  S
Co321       O322   2.099   1_554  S
C323       C1567   1.437       .  S
C324       C1550   1.438       .  S
C325       C1595   1.516       .  S
C326       C1609   1.511       .  S
C327        C328   1.426       .  A
C327        C332   1.426       .  A
C327       C1620   1.508       .  S
C328        C329   1.430       .  A
C328       C2687   1.511       .  S
C329        C330   1.429       .  A
C329       C1511   1.501       .  S
C330        C331   1.428       .  A
C330       C1494   1.513       .  S
C331        C332   1.428       .  A
C331       C1536   1.507       .  S
C332       C1525   1.505       .  S
O333        C341   1.274       .  A
O333       Co353   2.008       .  S
O334        C342   1.273       .  A
O334       Co354   2.004       .  S
O335        C343   1.258       .  A
O335       Co355   1.977       .  S
O336        C344   1.257       .  A
O336       Co356   1.971       .  S
O337        C343   1.267       .  A
O337       Co354   2.041       .  S
O338        C344   1.270       .  A
O338       Co353   2.065       .  S
O339        C342   1.252       .  A
O339       Co356   1.922       .  S
O340        C341   1.251       .  A
O340       Co355   1.926       .  S
C341       C1410   1.428       .  S
C342       C1438   1.424       .  S
C343       C1483   1.507       .  S
C344       C1466   1.518       .  S
O345        C358   1.250       .  A
O345       Co353   1.920       .  S
O346        C359   1.256       .  A
O346       Co354   1.929       .  S
O347        C360   1.272       .  A
O347       Co355   2.073       .  S
O348        C361   1.268       .  A
O348       Co356   2.052       .  S
O349        C361   1.257       .  A
O349       Co354   1.966       .  S
O350        C360   1.252       .  A
O350       Co353   1.963       .  S
O351        C358   1.274       .  A
O351       Co356   2.008       .  S
O352        C359   1.273       .  A
O352       Co355   2.010       .  S
Co353       O357   2.095       .  S
Co354       O357   2.098       .  S
Co355       O357   2.107       .  S
Co356       O357   2.101       .  S
C358       C1452   1.430       .  S
C359       C1427   1.433       .  S
C360       C1886   1.520       .  S
C361       C1539   1.505       .  S
O362        C370   1.251   1_545  A
O362       Co382   1.917       .  S
O363        C371   1.249   1_565  A
O363       Co383   1.923       .  S
O364        C372   1.272       .  A
O364       Co384   2.070       .  S
O365        C373   1.269       .  A
O365       Co385   2.055       .  S
O366        C372   1.256       .  A
O366       Co383   1.968       .  S
O367        C373   1.255       .  A
O367       Co382   1.968       .  S
O368        C371   1.272       .  A
O368       Co385   2.006       .  S
O369        C370   1.272       .  A
O369       Co384   2.009       .  S
C370       C2295   1.424       .  S
C371       C1368   1.427       .  S
C372       C2155   1.518       .  S
C373       C1679   1.514       .  S
O374        C387   1.271       .  A
O374       Co382   2.005       .  S
O375        C388   1.272       .  A
O375       Co383   2.004       .  S
O376        C389   1.255       .  A
O376       Co384   1.968   1_545  S
O377        C390   1.253       .  A
O377       Co385   1.962   1_565  S
O378        C390   1.271       .  A
O378       Co383   2.061       .  S
O379        C389   1.270       .  A
O379       Co382   2.059       .  S
O380        C387   1.252       .  A
O380       Co385   1.922       .  S
O381        C388   1.254       .  A
O381       Co384   1.935       .  S
Co382       O386   2.105   1_545  S
Co383       O386   2.101       .  S
Co384       O386   2.105       .  S
Co385       O386   2.101   1_545  S
C387       C1354   1.426       .  S
C388       C1343   1.438       .  S
C389       C1385   1.517       .  S
C390       C1396   1.512       .  S
C391        C392   1.423       .  A
C391        C396   1.428       .  A
C391       C1480   1.505       .  S
C392        C393   1.425   1_545  A
C392       C1298   1.508       .  S
C393        C394   1.433       .  A
C393       C1399   1.509       .  S
C394        C395   1.435       .  A
C394       C1326   1.512       .  S
C395        C396   1.432   1_565  A
C395       C1284   1.514       .  S
C396       C1312   1.511       .  S
O397        C405   1.253       .  A
O397       Co417   1.934       .  S
O398        C406   1.256       .  A
O398       Co418   1.931       .  S
O399        C407   1.265       .  A
O399       Co419   2.034       .  S
O400        C408   1.271       .  A
O400       Co420   2.070       .  S
O401        C407   1.259       .  A
O401       Co418   1.972       .  S
O402        C408   1.254       .  A
O402       Co417   1.966       .  S
O403        C406   1.272       .  A
O403       Co420   2.007       .  S
O404        C405   1.275       .  A
O404       Co419   2.018       .  S
C405       C2082   1.442       .  S
C406       C1242   1.434       .  S
C407       C1256   1.504       .  S
C408       C1329   1.517       .  S
O409        C422   1.276       .  A
O409       Co417   2.023       .  S
O410        C423   1.273       .  A
O410       Co418   2.006       .  S
O411        C424   1.256       .  A
O411       Co419   1.962       .  S
O412        C425   1.254       .  A
O412       Co420   1.967       .  S
O413        C425   1.270       .  A
O413       Co418   2.063       .  S
O414        C424   1.269       .  A
O414       Co417   2.063       .  S
O415        C422   1.249       .  A
O415       Co420   1.922       .  S
O416        C423   1.255       .  A
O416       Co419   1.928       .  S
Co417       O421   2.103       .  S
Co418       O421   2.107       .  S
Co419       O421   2.096       .  S
Co420       O421   2.105       .  S
C422       C1340   1.434       .  S
C423       C1228   1.429       .  S
C424       C2138   1.512       .  S
C425       C1273   1.516       .  S
O426        C434   1.249       .  A
O426       Co446   1.920       .  S
O427        C435   1.255       .  A
O427       Co447   1.933       .  S
O428        C436   1.273       .  A
O428       Co448   2.066       .  S
O429        C437   1.271       .  A
O429       Co449   2.061       .  S
O430        C436   1.260       .  A
O430       Co447   1.974   1_565  S
O431        C437   1.257       .  A
O431       Co446   1.966   1_545  S
O432        C435   1.269       .  A
O432       Co449   2.000       .  S
O433        C434   1.269       .  A
O433       Co448   2.004       .  S
C434       C1931   1.426       .  S
C435       C1424   1.432       .  S
C436       C1214   1.520       .  S
C437       C1315   1.509       .  S
O438        C451   1.269       .  A
O438       Co446   1.998       .  S
O439        C452   1.269       .  A
O439       Co447   2.002       .  S
O440        C453   1.257       .  A
O440       Co448   1.970       .  S
O441        C454   1.255       .  A
O441       Co449   1.966       .  S
O442        C454   1.272       .  A
O442       Co447   2.063       .  S
O443        C453   1.273       .  A
O443       Co446   2.071       .  S
O444        C451   1.253   1_545  A
O444       Co449   1.929       .  S
O445        C452   1.253   1_565  A
O445       Co448   1.927       .  S
Co446       O450   2.109   1_565  S
Co447       O450   2.113       .  S
Co448       O450   2.104   1_565  S
Co449       O450   2.105       .  S
C451       C1189   1.434       .  S
C452       C1172   1.430       .  S
C453       C1200   1.517       .  S
C454       C1858   1.516       .  S
C455        C456   1.430       .  A
C455        C460   1.431   1_565  A
C455       C1217   1.518       .  S
C456        C457   1.431   1_556  A
C456       C2001   1.507       .  S
C457        C458   1.433   1_565  A
C457       C2351   1.515       .  S
C458        C459   1.434       .  A
C458       C1382   1.510       .  S
C459        C460   1.434   1_554  A
C459       C1158   1.517       .  S
C460       C1147   1.512       .  S
O461        C469   1.254       .  A
O461       Co481   1.931       .  S
O462        C470   1.256       .  A
O462       Co482   1.933       .  S
O463        C471   1.272       .  A
O463       Co483   2.071       .  S
O464        C472   1.271       .  A
O464       Co484   2.064       .  S
O465        C471   1.257       .  A
O465       Co482   1.973       .  S
O466        C472   1.257       .  A
O466       Co481   1.977       .  S
O467        C470   1.271       .  A
O467       Co484   2.001       .  S
O468        C469   1.274       .  A
O468       Co483   2.014       .  S
C469       C1581   1.437       .  S
C470       C1102   1.431       .  S
C471       C1119   1.524       .  S
C472       C1161   1.523       .  S
O473        C486   1.273       .  A
O473       Co481   2.009       .  S
O474        C487   1.276       .  A
O474       Co482   2.018       .  S
O475        C488   1.257       .  A
O475       Co483   1.977       .  S
O476        C489   1.256       .  A
O476       Co484   1.970       .  S
O477        C489   1.268       .  A
O477       Co482   2.054       .  S
O478        C488   1.270       .  A
O478       Co481   2.063       .  S
O479        C486   1.251       .  A
O479       Co484   1.919       .  S
O480        C487   1.250       .  A
O480       Co483   1.928       .  S
Co481       O485   2.106       .  S
Co482       O485   2.103       .  S
Co483       O485   2.108       .  S
Co484       O485   2.103       .  S
C486       C1357   1.426       .  S
C487       C1088   1.435       .  S
C488       C1665   1.519       .  S
C489       C1130   1.515       .  S
O490        C498   1.275       .  A
O490       Co510   2.009       .  S
O491        C499   1.273       .  A
O491       Co511   2.008       .  S
O492        C500   1.254       .  A
O492       Co512   1.968       .  S
O493        C501   1.255       .  A
O493       Co513   1.967       .  S
O494        C500   1.270       .  A
O494       Co511   2.063       .  S
O495        C501   1.267       .  A
O495       Co510   2.055       .  S
O496        C499   1.252       .  A
O496       Co513   1.919       .  S
O497        C498   1.252       .  A
O497       Co512   1.923       .  S
C498       C1721   1.432       .  S
C499       C1441   1.425       .  S
C500       C1497   1.518       .  S
C501       C1648   1.510       .  S
O502        C515   1.251       .  A
O502       Co510   1.926       .  S
O503        C516   1.253       .  A
O503       Co511   1.924       .  S
O504        C517   1.269       .  A
O504       Co512   2.060       .  S
O505        C518   1.267       .  A
O505       Co513   2.052       .  S
O506        C518   1.257       .  A
O506       Co511   1.967       .  S
O507        C517   1.255       .  A
O507       Co510   1.964       .  S
O508        C515   1.275       .  A
O508       Co513   2.010       .  S
O509        C516   1.274       .  A
O509       Co512   2.009       .  S
Co510       O514   2.100       .  S
Co511       O514   2.102       .  S
Co512       O514   2.098       .  S
Co513       O514   2.097       .  S
C515       C1371   1.429       .  S
C516       C1077   1.427       .  S
C517       C2477   1.512       .  S
C518       C1301   1.508       .  S
C519        C520   1.435       .  A
C519        C524   1.432       .  A
C519       C2589   1.515       .  S
C520        C521   1.433       .  A
C520       C1032   1.515       .  S
C521        C522   1.431       .  A
C521       C1270   1.513       .  S
C522        C523   1.429       .  A
C522       C1060   1.510       .  S
C523        C524   1.427       .  A
C523       C1046   1.510       .  S
C524       C2239   1.509       .  S
O525        C533   1.271       .  A
O525       Co545   2.006       .  S
O526        C534   1.275       .  A
O526       Co546   2.017       .  S
O527        C535   1.254       .  A
O527       Co547   1.962       .  S
O528        C536   1.254       .  A
O528       Co548   1.973       .  S
O529        C535   1.267       .  A
O529       Co546   2.049       .  S
O530        C536   1.272       .  A
O530       Co545   2.070       .  S
O531        C534   1.250       .  A
O531       Co548   1.926       .  S
O532        C533   1.253       .  A
O532       Co547   1.928       .  S
C533       C1231   1.430       .  S
C534       C1091   1.436       .  S
C535        C990   1.509       .  S
C536       C1004   1.522       .  S
O537        C550   1.250       .  A
O537       Co545   1.918       .  S
O538        C551   1.254       .  A
O538       Co546   1.929       .  S
O539        C552   1.269       .  A
O539       Co547   2.060       .  S
O540        C553   1.272       .  A
O540       Co548   2.075       .  S
O541        C553   1.256       .  A
O541       Co546   1.971       .  S
O542        C552   1.255       .  A
O542       Co545   1.969       .  S
O543        C550   1.275       .  A
O543       Co548   2.014       .  S
O544        C551   1.273       .  A
O544       Co547   2.010       .  S
Co545       O549   2.109       .  S
Co546       O549   2.113       .  S
Co547       O549   2.105       .  S
Co548       O549   2.103       .  S
C550        C965   1.428       .  S
C551        C979   1.432       .  S
C552       C1063   1.517       .  S
C553       C1018   1.527       .  S
C554        C555   1.431       .  A
C554        C559   1.436       .  A
C554       C1763   1.514       .  S
C555        C556   1.429       .  A
C555       C2603   1.516       .  S
C556        C557   1.431       .  A
C556        C934   1.511       .  S
C557        C558   1.432       .  A
C557       C1133   1.509       .  S
C558        C559   1.435       .  A
C558       C1021   1.519       .  S
C559        C951   1.512       .  S
C560        C561   1.428       .  A
C560        C565   1.432       .  A
C560       C2449   1.509       .  S
C561        C562   1.427       .  A
C561       C1847   1.510       .  S
C562        C563   1.430       .  A
C562        C920   1.509       .  S
C563        C564   1.435       .  A
C563       C1987   1.512       .  S
C564        C565   1.434       .  A
C564       C1203   1.514       .  S
C565        C909   1.514       .  S
O566        C574   1.249   1_545  A
O566       Co586   1.920       .  S
O567        C575   1.251   1_565  A
O567       Co587   1.921       .  S
O568        C576   1.269       .  A
O568       Co588   2.057       .  S
O569        C577   1.267       .  A
O569       Co589   2.052       .  S
O570        C576   1.256       .  A
O570       Co587   1.973       .  S
O571        C577   1.254       .  A
O571       Co586   1.959       .  S
O572        C575   1.275       .  A
O572       Co589   2.011       .  S
O573        C574   1.274       .  A
O573       Co588   2.018       .  S
C574       C2309   1.431       .  S
C575       C1074   1.434       .  S
C576       C2015   1.517       .  S
C577       C1508   1.503       .  S
O578        C591   1.273       .  A
O578       Co586   2.008       .  S
O579        C592   1.270       .  A
O579       Co587   2.001       .  S
O580        C593   1.255       .  A
O580       Co588   1.963   1_545  S
O581        C594   1.259       .  A
O581       Co589   1.973   1_565  S
O582        C594   1.272       .  A
O582       Co587   2.065       .  S
O583        C593   1.268       .  A
O583       Co586   2.053       .  S
O584        C591   1.258       .  A
O584       Co589   1.947       .  S
O585        C592   1.255       .  A
O585       Co588   1.927       .  S
Co586       O590   2.102       .  S
Co587       O590   2.109   1_565  S
Co588       O590   2.099   1_565  S
Co589       O590   2.108       .  S
C591       C2645   1.448       .  S
C592       C2365   1.433       .  S
C593       C2740   1.507       .  S
C594       C2491   1.520       .  S
O595        C603   1.250       .  A
O595       Co615   1.927       .  S
O596        C604   1.255       .  A
O596       Co616   1.931       .  S
O597        C605   1.269       .  A
O597       Co617   2.047       .  S
O598        C606   1.272       .  A
O598       Co618   2.075       .  S
O599        C605   1.258       .  A
O599       Co616   1.974       .  S
O600        C606   1.253       .  A
O600       Co615   1.963       .  S
O601        C604   1.271       .  A
O601       Co618   1.992       .  S
O602        C603   1.274       .  A
O602       Co617   2.015       .  S
C603       C1791   1.433       .  S
C604        C962   1.436       .  S
C605        C892   1.513       .  S
C606        C878   1.517       .  S
O607        C620   1.273       .  A
O607       Co615   2.010       .  S
O608        C621   1.271       .  A
O608       Co616   2.002       .  S
O609        C622   1.254       .  A
O609       Co617   1.964       .  S
O610        C623   1.258       .  A
O610       Co618   1.976       .  S
O611        C623   1.271       .  A
O611       Co616   2.059       .  S
O612        C622   1.271       .  A
O612       Co615   2.063       .  S
O613        C620   1.251       .  A
O613       Co618   1.926       .  S
O614        C621   1.255       .  A
O614       Co617   1.930       .  S
Co615       O619   2.096       .  S
Co616       O619   2.101       .  S
Co617       O619   2.095       .  S
Co618       O619   2.104       .  S
C620       C1413   1.431       .  S
C621       C1704   1.432       .  S
C622       C1903   1.513       .  S
C623        C948   1.518       .  S
C624        C625   1.430       .  A
C624        C629   1.428       .  A
C624        C895   1.507       .  S
C625        C626   1.434   1_655  A
C625       C1819   1.516       .  S
C626        C627   1.434       .  A
C626       C2435   1.514       .  S
C627        C628   1.429       .  A
C627       C2113   1.510       .  S
C628        C629   1.429   1_455  A
C628        C864   1.513       .  S
C629       C1746   1.511       .  S
O630        C638   1.274       .  A
O630       Co650   2.008       .  S
O631        C639   1.274       .  A
O631       Co651   2.004       .  S
O632        C640   1.253       .  A
O632       Co652   1.962       .  S
O633        C641   1.256       .  A
O633       Co653   1.974       .  S
O634        C640   1.270       .  A
O634       Co651   2.072       .  S
O635        C641   1.268       .  A
O635       Co650   2.051       .  S
O636        C639   1.251   1_554  A
O636       Co653   1.925       .  S
O637        C638   1.252   1_556  A
O637       Co652   1.921       .  S
C638       C2194   1.426       .  S
C639       C1945   1.430       .  S
C640        C923   1.519       .  S
C641       C1049   1.515       .  S
O642        C655   1.257       .  A
O642       Co650   1.930       .  S
O643        C656   1.247       .  A
O643       Co651   1.917       .  S
O644        C657   1.268       .  A
O644       Co652   2.050       .  S
O645        C658   1.271       .  A
O645       Co653   2.074       .  S
O646        C658   1.253       .  A
O646       Co651   1.963   1_554  S
O647        C657   1.260       .  A
O647       Co650   1.975   1_556  S
O648        C655   1.273       .  A
O648       Co653   2.007       .  S
O649        C656   1.276       .  A
O649       Co652   2.020       .  S
Co650       O654   2.101   1_554  S
Co651       O654   2.100       .  S
Co652       O654   2.096       .  S
Co653       O654   2.109   1_554  S
C655        C976   1.435       .  S
C656       C1805   1.430       .  S
C657        C836   1.514       .  S
C658        C850   1.518       .  S
C659        C660   1.431       .  A
C659        C664   1.430       .  A
C659        C822   1.510       .  S
C660        C661   1.434   1_556  A
C660       C1973   1.513       .  S
C661        C662   1.436       .  A
C661        C853   1.516       .  S
C662        C663   1.430       .  A
C662        C993   1.506       .  S
C663        C664   1.427   1_554  A
C663       C1116   1.519       .  S
C664       C1606   1.506       .  S
O665        C673   1.254   1_554  A
O665       Co685   1.935       .  S
O666        C674   1.254   1_556  A
O666       Co686   1.928       .  S
O667        C675   1.271       .  A
O667       Co687   2.064       .  S
O668        C676   1.270       .  A
O668       Co688   2.054       .  S
O669        C675   1.255       .  A
O669       Co686   1.965       .  S
O670        C676   1.260       .  A
O670       Co685   1.975       .  S
O671        C674   1.272       .  A
O671       Co688   2.009       .  S
O672        C673   1.272       .  A
O672       Co687   2.006       .  S
C673       C2673   1.435       .  S
C674       C1105   1.431       .  S
C675       C1875   1.517       .  S
C676        C937   1.512       .  S
O677        C690   1.272       .  A
O677       Co685   2.004       .  S
O678        C691   1.272       .  A
O678       Co686   2.008       .  S
O679        C692   1.257       .  A
O679       Co687   1.972   1_554  S
O680        C693   1.261       .  A
O680       Co688   1.979   1_556  S
O681        C693   1.270       .  A
O681       Co686   2.054       .  S
O682        C692   1.272       .  A
O682       Co685   2.067       .  S
O683        C690   1.257       .  A
O683       Co688   1.938       .  S
O684        C691   1.252       .  A
O684       Co687   1.924       .  S
Co685       O689   2.108       .  S
Co686       O689   2.101   1_556  S
Co687       O689   2.105   1_556  S
Co688       O689   2.109       .  S
C690       C2547   1.439       .  S
C691       C1175   1.428       .  S
C692       C2729   1.518       .  S
C693       C1144   1.515       .  S
O694        C702   1.271       .  A
O694       Co714   1.994       .  S
O695        C703   1.273       .  A
O695       Co715   2.002       .  S
O696        C704   1.255       .  A
O696       Co716   1.966       .  S
O697        C705   1.259       .  A
O697       Co717   1.978       .  S
O698        C704   1.270       .  A
O698       Co715   2.055       .  S
O699        C705   1.272       .  A
O699       Co714   2.061       .  S
O700        C703   1.257       .  A
O700       Co717   1.942       .  S
O701        C702   1.257       .  A
O701       Co716   1.932       .  S
C702       C2071   1.429       .  S
C703       C1553   1.438       .  S
C704       C1522   1.511       .  S
C705       C2029   1.518       .  S
O706        C719   1.253       .  A
O706       Co714   1.925       .  S
O707        C720   1.251       .  A
O707       Co715   1.923       .  S
O708        C721   1.266       .  A
O708       Co716   2.040       .  S
O709        C722   1.269       .  A
O709       Co717   2.058       .  S
O710        C722   1.257       .  A
O710       Co715   1.968       .  S
O711        C721   1.260       .  A
O711       Co714   1.975       .  S
O712        C719   1.274       .  A
O712       Co717   2.012       .  S
O713        C720   1.274       .  A
O713       Co716   2.011       .  S
Co714       O718   2.100       .  S
Co715       O718   2.099       .  S
Co716       O718   2.097       .  S
Co717       O718   2.105       .  S
C719       C1959   1.430       .  S
C720       C1455   1.426       .  S
C721        C808   1.507       .  S
C722        C825   1.511       .  S
O723        C731   1.271       .  A
O723       Co743   2.004       .  S
O724        C732   1.272       .  A
O724       Co744   2.012       .  S
O725        C733   1.259       .  A
O725       Co745   1.973       .  S
O726        C734   1.256       .  A
O726       Co746   1.965       .  S
O727        C733   1.270       .  A
O727       Co744   2.053       .  S
O728        C734   1.270       .  A
O728       Co743   2.058       .  S
O729        C732   1.251       .  A
O729       Co746   1.926       .  S
O730        C731   1.256       .  A
O730       Co745   1.934       .  S
C731       C2561   1.434       .  S
C732       C1186   1.432       .  S
C733       C1287   1.513       .  S
C734       C2460   1.508       .  S
O735        C748   1.254       .  A
O735       Co743   1.928       .  S
O736        C749   1.255       .  A
O736       Co744   1.931       .  S
O737        C750   1.271       .  A
O737       Co745   2.060       .  S
O738        C751   1.272       .  A
O738       Co746   2.066       .  S
O739        C751   1.257       .  A
O739       Co744   1.970       .  S
O740        C750   1.259       .  A
O740       Co743   1.971       .  S
O741        C748   1.270       .  A
O741       Co746   2.000       .  S
O742        C749   1.271       .  A
O742       Co745   2.005       .  S
Co743       O747   2.111       .  S
Co744       O747   2.104       .  S
Co745       O747   2.108       .  S
Co746       O747   2.108       .  S
C748       C2407   1.428       .  S
C749       C1245   1.432       .  S
C750       C1035   1.514       .  S
C751        C906   1.516       .  S
O752        C760   1.262       .  A
O752       Co772   1.940       .  S
O753        C761   1.258       .  A
O753       Co773   1.935       .  S
O754        C762   1.270       .  A
O754       Co774   2.066       .  S
O755        C763   1.267       .  A
O755       Co775   2.052       .  S
O756        C762   1.257       .  A
O756       Co773   1.976       .  S
O757        C763   1.259       .  A
O757       Co772   1.979       .  S
O758        C761   1.278       .  A
O758       Co775   2.020       .  S
O759        C760   1.273       .  A
O759       Co774   1.994       .  S
C760       C2208   1.436       .  S
C761       C1732   1.441       .  S
C762        C794   1.522       .  S
C763        C867   1.516       .  S
O764        C777   1.280       .  A
O764       Co772   2.027       .  S
O765        C778   1.280       .  A
O765       Co773   2.028       .  S
O766        C779   1.258       .  A
O766       Co774   1.971       .  S
O767        C780   1.252       .  A
O767       Co775   1.957       .  S
O768        C780   1.264       .  A
O768       Co773   2.051       .  S
O769        C779   1.263       .  A
O769       Co772   2.045       .  S
O770        C777   1.249       .  A
O770       Co775   1.917       .  S
O771        C778   1.250       .  A
O771       Co774   1.919       .  S
Co772       O776   2.107       .  S
Co773       O776   2.109       .  S
Co774       O776   2.100       .  S
Co775       O776   2.091       .  S
C777       C2054   1.430       .  S
C778       C1564   1.432       .  S
C779       C2169   1.511       .  S
C780       C1634   1.504       .  S
C781        C782   1.429       .  A
C781        C786   1.428       .  A
C781        C811   1.504       .  S
C782        C783   1.432       .  A
C782       C2096   1.523       .  S
C783        C784   1.437       .  A
C783       C1259   1.504       .  S
C784        C785   1.434       .  A
C784       C1007   1.521       .  S
C785        C786   1.430       .  A
C785        C881   1.507       .  S
C786       C1469   1.514       .  S
C787        C788   1.429       .  A
C787        C792   1.433   1_455  A
C787        C797   1.515       .  S
C788        C789   1.430   1_554  A
C788       C1592   1.509       .  S
C789        C790   1.427   1_455  A
C789       C2698   1.502       .  S
C790        C791   1.424       .  A
C790       C1833   1.512       .  S
C791        C792   1.430   1_556  A
C791        C839   1.509       .  S
C792       C2225   1.507       .  S
C793        C794   1.411       .  A
C793        C798   1.411       .  A
C793        H800   1.083       .  S
C794        C795   1.425       .  A
C795        C796   1.417       .  A
C795        N802   1.430       .  S
C796        C797   1.407       .  A
C796        H801   1.083       .  S
C797        C798   1.420       .  A
C798        N799   1.439   1_455  S
N799        H803   1.046       .  S
N799        H804   1.041       .  S
N802        H805   1.041       .  S
N802        H806   1.046       .  S
C807        C808   1.408       .  A
C807        C812   1.404       .  A
C807        H814   1.083       .  S
C808        C809   1.424       .  A
C809        C810   1.412       .  A
C809        N816   1.433       .  S
C810        C811   1.405       .  A
C810        H815   1.083       .  S
C811        C812   1.415       .  A
C812        N813   1.434       .  S
N813        H817   1.043       .  S
N813        H818   1.045       .  S
N816        H819   1.042       .  S
N816        H820   1.046       .  S
C821        C822   1.408       .  A
C821        C826   1.418       .  A
C821        H828   1.083       .  S
C822        C823   1.420       .  A
C823        C824   1.408       .  A
C823        N830   1.439       .  S
C824        C825   1.409       .  A
C824        H829   1.083       .  S
C825        C826   1.416       .  A
C826        N827   1.431       .  S
N827        H831   1.046       .  S
N827        H832   1.045       .  S
N830        H833   1.043       .  S
N830        H834   1.045       .  S
C835        C836   1.409       .  A
C835        C840   1.406   1_556  A
C835        H842   1.083   1_556  S
C836        C837   1.422       .  A
C837        C838   1.421       .  A
C837        N844   1.436       .  S
C838        C839   1.405       .  A
C838        H843   1.083       .  S
C839        C840   1.415   1_556  A
C840        N841   1.433       .  S
N841        H845   1.043       .  S
N841        H846   1.045       .  S
N844        H847   1.046       .  S
N844        H848   1.046       .  S
C849        C850   1.413       .  A
C849        C854   1.421       .  A
C849        H856   1.083       .  S
C850        C851   1.419       .  A
C851        C852   1.409       .  A
C851        N858   1.432   1_554  S
C852        C853   1.403       .  A
C852        H857   1.083   1_554  S
C853        C854   1.422       .  A
C854        N855   1.437       .  S
N855        H859   1.045       .  S
N855        H860   1.043       .  S
N858        H861   1.046       .  S
N858        H862   1.046   1_556  S
C863        C864   1.405       .  A
C863        C868   1.416       .  A
C863        H870   1.082       .  S
C864        C865   1.422       .  A
C865        C866   1.412       .  A
C865        N872   1.439   1_455  S
C866        C867   1.410       .  A
C866        H871   1.083       .  S
C867        C868   1.418       .  A
C868        N869   1.431       .  S
N869        H873   1.045       .  S
N869        H874   1.046       .  S
N872        H875   1.043       .  S
N872        H876   1.045       .  S
C877        C878   1.414       .  A
C877        C882   1.421       .  A
C877        H884   1.083       .  S
C878        C879   1.426       .  A
C879        C880   1.401       .  A
C879        N886   1.432       .  S
C880        C881   1.399       .  A
C880        H885   1.085       .  S
C881        C882   1.420       .  A
C882        N883   1.437       .  S
N883        H887   1.046       .  S
N883        H888   1.044       .  S
N886        H889   1.045       .  S
N886        H890   1.045       .  S
C891        C892   1.413       .  A
C891        C896   1.414       .  A
C891        H898   1.083       .  S
C892        C893   1.424       .  A
C893        C894   1.405       .  A
C893        N900   1.432       .  S
C894        C895   1.403       .  A
C894        H899   1.084       .  S
C895        C896   1.417       .  A
C896        N897   1.436       .  S
N897        H901   1.046       .  S
N897        H902   1.042       .  S
N900        H903   1.044       .  S
N900        H904   1.045       .  S
C905        C906   1.410       .  A
C905        C910   1.407       .  A
C905        H912   1.083       .  S
C906        C907   1.422       .  A
C907        C908   1.417       .  A
C907        N914   1.432       .  S
C908        C909   1.410       .  A
C908        H913   1.081       .  S
C909        C910   1.420       .  A
C910        N911   1.439       .  S
N911        H915   1.045       .  S
N911        H916   1.041       .  S
N914        H917   1.041       .  S
N914        H918   1.046       .  S
C919        C920   1.406       .  A
C919        C924   1.415       .  A
C919        H926   1.083       .  S
C920        C921   1.410       .  A
C921        C922   1.412       .  A
C921        N928   1.438       .  S
C922        C923   1.413       .  A
C922        H927   1.083       .  S
C923        C924   1.424       .  A
C924        N925   1.430       .  S
N925        H929   1.046       .  S
N925        H930   1.042       .  S
N928        H931   1.045       .  S
N928        H932   1.045       .  S
C933        C934   1.408       .  A
C933        C938   1.416       .  A
C933        H940   1.083       .  S
C934        C935   1.410       .  A
C935        C936   1.409       .  A
C935        N942   1.433       .  S
C936        C937   1.409       .  A
C936        H941   1.083       .  S
C937        C938   1.424       .  A
C938        N939   1.432       .  S
N939        H943   1.042       .  S
N939        H944   1.046       .  S
N942        H945   1.045       .  S
N942        H946   1.045       .  S
C947        C948   1.414       .  A
C947        C952   1.419       .  A
C947        H954   1.083       .  S
C948        C949   1.424       .  A
C949        C950   1.405       .  A
C949        N956   1.432       .  S
C950        C951   1.403       .  A
C950        H955   1.084       .  S
C951        C952   1.419       .  A
C952        N953   1.437       .  S
N953        H957   1.045       .  S
N953        H958   1.044       .  S
N956        H959   1.045       .  S
N956        H960   1.045       .  S
C961        C962   1.397       .  A
C961        C966   1.388       .  A
C961        H968   1.084       .  S
C962        C963   1.407       .  A
C963        C964   1.378       .  A
C963        N970   1.431       .  S
C964        C965   1.385       .  A
C964        H969   1.077       .  S
C965        C966   1.408       .  A
C966        N967   1.431       .  S
N967        H971   1.041       .  S
N967        H972   1.046       .  S
N970        H973   1.045       .  S
N970        H974   1.046       .  S
C975        C976   1.394       .  A
C975        C980   1.386       .  A
C975        H982   1.085       .  S
C976        C977   1.405       .  A
C977        C978   1.385       .  A
C977        N984   1.431       .  S
C978        C979   1.391       .  A
C978        H983   1.082       .  S
C979        C980   1.410       .  A
C980        N981   1.431       .  S
N981        H985   1.042       .  S
N981        H986   1.046       .  S
N984        H987   1.046       .  S
N984        H988   1.046       .  S
C989        C990   1.411       .  A
C989        C994   1.415       .  A
C989        H996   1.083       .  S
C990        C991   1.417       .  A
C991        C992   1.408       .  A
C991        N998   1.432       .  S
C992        C993   1.402       .  A
C992        H997   1.084       .  S
C993        C994   1.420       .  A
C994        N995   1.436       .  S
N995        H999   1.045       .  S
N995       H1000   1.042       .  S
N998       H1001   1.046       .  S
N998       H1002   1.046       .  S
C1003      C1004   1.411       .  A
C1003      C1008   1.420       .  A
C1003      H1010   1.081       .  S
C1004      C1005   1.421       .  A
C1005      C1006   1.416       .  A
C1005      N1012   1.432       .  S
C1006      C1007   1.406       .  A
C1006      H1011   1.084       .  S
C1007      C1008   1.415       .  A
C1008      N1009   1.430       .  S
N1009      H1013   1.045       .  S
N1009      H1014   1.046       .  S
N1012      H1015   1.046       .  S
N1012      H1016   1.046       .  S
C1017      C1018   1.415       .  A
C1017      C1022   1.425       .  A
C1017      H1024   1.083       .  S
C1018      C1019   1.429       .  A
C1019      C1020   1.409       .  A
C1019      N1026   1.433       .  S
C1020      C1021   1.403       .  A
C1020      H1025   1.084       .  S
C1021      C1022   1.414       .  A
C1022      N1023   1.436       .  S
N1023      H1027   1.045       .  S
N1023      H1028   1.044       .  S
N1026      H1029   1.044       .  S
N1026      H1030   1.045       .  S
C1031      C1032   1.409       .  A
C1031      C1036   1.420       .  A
C1031      H1038   1.083       .  S
C1032      C1033   1.422       .  A
C1033      C1034   1.410       .  A
C1033      N1040   1.439       .  S
C1034      C1035   1.409       .  A
C1034      H1039   1.083       .  S
C1035      C1036   1.416       .  A
C1036      N1037   1.431       .  S
N1037      H1041   1.046       .  S
N1037      H1042   1.044       .  S
N1040      H1043   1.042       .  S
N1040      H1044   1.046       .  S
C1045      C1046   1.403       .  A
C1045      C1050   1.408       .  A
C1045      H1052   1.084       .  S
C1046      C1047   1.409       .  A
C1047      C1048   1.416       .  A
C1047      N1054   1.431       .  S
C1048      C1049   1.413       .  A
C1048      H1053   1.083       .  S
C1049      C1050   1.426       .  A
C1050      N1051   1.432       .  S
N1051      H1055   1.045       .  S
N1051      H1056   1.045       .  S
N1054      H1057   1.045       .  S
N1054      H1058   1.045       .  S
C1059      C1060   1.402       .  A
C1059      C1064   1.404       .  A
C1059      H1066   1.084       .  S
C1060      C1061   1.418       .  A
C1061      C1062   1.418       .  A
C1061      N1068   1.437       .  S
C1062      C1063   1.414       .  A
C1062      H1067   1.083       .  S
C1063      C1064   1.425       .  A
C1064      N1065   1.432       .  S
N1065      H1069   1.045       .  S
N1065      H1070   1.045       .  S
N1068      H1071   1.044       .  S
N1068      H1072   1.046       .  S
C1073      C1074   1.398       .  A
C1073      C1078   1.386       .  A
C1073      H1080   1.081   1_545  S
C1074      C1075   1.409       .  A
C1075      C1076   1.386       .  A
C1075      N1082   1.437       .  S
C1076      C1077   1.397       .  A
C1076      H1081   1.085       .  S
C1077      C1078   1.396       .  A
C1078      N1079   1.435       .  S
N1079      H1083   1.046   1_545  S
N1079      H1084   1.045       .  S
N1082      H1085   1.041       .  S
N1082      H1086   1.045       .  S
C1087      C1088   1.397       .  A
C1087      C1092   1.384       .  A
C1087      H1094   1.080       .  S
C1088      C1089   1.397       .  A
C1089      C1090   1.388       .  A
C1089      N1096   1.430       .  S
C1090      C1091   1.399       .  A
C1090      H1095   1.084       .  S
C1091      C1092   1.404       .  A
C1092      N1093   1.431       .  S
N1093      H1097   1.041       .  S
N1093      H1098   1.045       .  S
N1096      H1099   1.045       .  S
N1096      H1100   1.044       .  S
C1101      C1102   1.392       .  A
C1101      C1106   1.387       .  A
C1101      H1108   1.084       .  S
C1102      C1103   1.408       .  A
C1103      C1104   1.390       .  A
C1103      N1110   1.437       .  S
C1104      C1105   1.392       .  A
C1104      H1109   1.084       .  S
C1105      C1106   1.404       .  A
C1106      N1107   1.431   1_554  S
N1107      H1111   1.046       .  S
N1107      H1112   1.046       .  S
N1110      H1113   1.045       .  S
N1110      H1114   1.046       .  S
C1115      C1116   1.409       .  A
C1115      C1120   1.418       .  A
C1115      H1122   1.082       .  S
C1116      C1117   1.420       .  A
C1117      C1118   1.411       .  A
C1117      N1124   1.439   1_554  S
C1118      C1119   1.412       .  A
C1118      H1123   1.083       .  S
C1119      C1120   1.424       .  A
C1120      N1121   1.430       .  S
N1121      H1125   1.042       .  S
N1121      H1126   1.045       .  S
N1124      H1127   1.042       .  S
N1124      H1128   1.046       .  S
C1129      C1130   1.413       .  A
C1129      C1134   1.420       .  A
C1129      H1136   1.083       .  S
C1130      C1131   1.425       .  A
C1131      C1132   1.405       .  A
C1131      N1138   1.432       .  S
C1132      C1133   1.402       .  A
C1132      H1137   1.084       .  S
C1133      C1134   1.412       .  A
C1134      N1135   1.435       .  S
N1135      H1139   1.046       .  S
N1135      H1140   1.044       .  S
N1138      H1141   1.045       .  S
N1138      H1142   1.045       .  S
C1143      C1144   1.408       .  A
C1143      C1148   1.410   1_556  A
C1143      H1150   1.083   1_556  S
C1144      C1145   1.420       .  A
C1145      C1146   1.420       .  A
C1145      N1152   1.436       .  S
C1146      C1147   1.405       .  A
C1146      H1151   1.082       .  S
C1147      C1148   1.422   1_556  A
C1148      N1149   1.438   1_545  S
N1149      H1153   1.046       .  S
N1149      H1154   1.041       .  S
N1152      H1155   1.046       .  S
N1152      H1156   1.046       .  S
C1157      C1158   1.405       .  A
C1157      C1162   1.410       .  A
C1157      H1164   1.084   1_554  S
C1158      C1159   1.420       .  A
C1159      C1160   1.419       .  A
C1159      N1166   1.437       .  S
C1160      C1161   1.414       .  A
C1160      H1165   1.083       .  S
C1161      C1162   1.426       .  A
C1162      N1163   1.432       .  S
N1163      H1167   1.045       .  S
N1163      H1168   1.045       .  S
N1166      H1169   1.042       .  S
N1166      H1170   1.046       .  S
C1171      C1172   1.393       .  A
C1171      C1176   1.389       .  A
C1171      H1178   1.084       .  S
C1172      C1173   1.410       .  A
C1173      C1174   1.382       .  A
C1173      N1180   1.431   1_545  S
C1174      C1175   1.391       .  A
C1174      H1179   1.085       .  S
C1175      C1176   1.406       .  A
C1176      N1177   1.437       .  S
N1177      H1181   1.046       .  S
N1177      H1182   1.045       .  S
N1180      H1183   1.045       .  S
N1180      H1184   1.043       .  S
C1185      C1186   1.391       .  A
C1185      C1190   1.385       .  A
C1185      H1192   1.083       .  S
C1186      C1187   1.409       .  A
C1187      C1188   1.384       .  A
C1187      N1194   1.430       .  S
C1188      C1189   1.393       .  A
C1188      H1193   1.085       .  S
C1189      C1190   1.407       .  A
C1190      N1191   1.433   1_565  S
N1191      H1195   1.046   1_545  S
N1191      H1196   1.045       .  S
N1194      H1197   1.046       .  S
N1194      H1198   1.043       .  S
C1199      C1200   1.411       .  A
C1199      C1204   1.407       .  A
C1199      H1206   1.083       .  S
C1200      C1201   1.419       .  A
C1201      C1202   1.422       .  A
C1201      N1208   1.432       .  S
C1202      C1203   1.409       .  A
C1202      H1207   1.081       .  S
C1203      C1204   1.414       .  A
C1204      N1205   1.433       .  S
N1205      H1209   1.044       .  S
N1205      H1210   1.045       .  S
N1208      H1211   1.045       .  S
N1208      H1212   1.046       .  S
C1213      C1214   1.410   1_545  A
C1213      C1218   1.411       .  A
C1213      H1220   1.083       .  S
C1214      C1215   1.420       .  A
C1215      C1216   1.424       .  A
C1215      N1222   1.436       .  S
C1216      C1217   1.409       .  A
C1216      H1221   1.083       .  S
C1217      C1218   1.421   1_565  A
C1218      N1219   1.439       .  S
N1219      H1223   1.045       .  S
N1219      H1224   1.043       .  S
N1222      H1225   1.046       .  S
N1222      H1226   1.045       .  S
C1227      C1228   1.392       .  A
C1227      C1232   1.387       .  A
C1227      H1234   1.085       .  S
C1228      C1229   1.405       .  A
C1229      C1230   1.387       .  A
C1229      N1236   1.431       .  S
C1230      C1231   1.391       .  A
C1230      H1235   1.084       .  S
C1231      C1232   1.405       .  A
C1232      N1233   1.431       .  S
N1233      H1237   1.046       .  S
N1233      H1238   1.045       .  S
N1236      H1239   1.046       .  S
N1236      H1240   1.045       .  S
C1241      C1242   1.394       .  A
C1241      C1246   1.386       .  A
C1241      H1248   1.085       .  S
C1242      C1243   1.405       .  A
C1243      C1244   1.386       .  A
C1243      N1250   1.432       .  S
C1244      C1245   1.392       .  A
C1244      H1249   1.083       .  S
C1245      C1246   1.410       .  A
C1246      N1247   1.431       .  S
N1247      H1251   1.043       .  S
N1247      H1252   1.045       .  S
N1250      H1253   1.046       .  S
N1250      H1254   1.046       .  S
C1255      C1256   1.407       .  A
C1255      C1260   1.407       .  A
C1255      H1262   1.084       .  S
C1256      C1257   1.421       .  A
C1257      C1258   1.409       .  A
C1257      N1264   1.433       .  S
C1258      C1259   1.405       .  A
C1258      H1263   1.082       .  S
C1259      C1260   1.420       .  A
C1260      N1261   1.439       .  S
N1261      H1265   1.043       .  S
N1261      H1266   1.043       .  S
N1264      H1267   1.042       .  S
N1264      H1268   1.046       .  S
C1269      C1270   1.403       .  A
C1269      C1274   1.406       .  A
C1269      H1276   1.084       .  S
C1270      C1271   1.420       .  A
C1271      C1272   1.418       .  A
C1271      N1278   1.436       .  S
C1272      C1273   1.412       .  A
C1272      H1277   1.083       .  S
C1273      C1274   1.425       .  A
C1274      N1275   1.432       .  S
N1275      H1279   1.045       .  S
N1275      H1280   1.045       .  S
N1278      H1281   1.043       .  S
N1278      H1282   1.045       .  S
C1283      C1284   1.408       .  A
C1283      C1288   1.421       .  A
C1283      H1290   1.080       .  S
C1284      C1285   1.415       .  A
C1285      C1286   1.407       .  A
C1285      N1292   1.432   1_565  S
C1286      C1287   1.409       .  A
C1286      H1291   1.083       .  S
C1287      C1288   1.419       .  A
C1288      N1289   1.437       .  S
N1289      H1293   1.046       .  S
N1289      H1294   1.046       .  S
N1292      H1295   1.045       .  S
N1292      H1296   1.043   1_545  S
C1297      C1298   1.408       .  A
C1297      C1302   1.420       .  A
C1297      H1304   1.083       .  S
C1298      C1299   1.419       .  A
C1299      C1300   1.405       .  A
C1299      N1306   1.440   1_545  S
C1300      C1301   1.407       .  A
C1300      H1305   1.084       .  S
C1301      C1302   1.418       .  A
C1302      N1303   1.436       .  S
N1303      H1307   1.046       .  S
N1303      H1308   1.046       .  S
N1306      H1309   1.042       .  S
N1306      H1310   1.046       .  S
C1311      C1312   1.409       .  A
C1311      C1316   1.414       .  A
C1311      H1318   1.081       .  S
C1312      C1313   1.421   1_545  A
C1313      C1314   1.406       .  A
C1313      N1320   1.440       .  S
C1314      C1315   1.408   1_565  A
C1314      H1319   1.084       .  S
C1315      C1316   1.420       .  A
C1316      N1317   1.432       .  S
N1317      H1321   1.043       .  S
N1317      H1322   1.046       .  S
N1320      H1323   1.042       .  S
N1320      H1324   1.046       .  S
C1325      C1326   1.407       .  A
C1325      C1330   1.415       .  A
C1325      H1332   1.082       .  S
C1326      C1327   1.416       .  A
C1327      C1328   1.405       .  A
C1327      N1334   1.433       .  S
C1328      C1329   1.411       .  A
C1328      H1333   1.083       .  S
C1329      C1330   1.423       .  A
C1330      N1331   1.429       .  S
N1331      H1335   1.041       .  S
N1331      H1336   1.045       .  S
N1334      H1337   1.040       .  S
N1334      H1338   1.043       .  S
C1339      C1340   1.396       .  A
C1339      C1344   1.384       .  A
C1339      H1346   1.079       .  S
C1340      C1341   1.398       .  A
C1341      C1342   1.390       .  A
C1341      N1348   1.435       .  S
C1342      C1343   1.402       .  A
C1342      H1347   1.084       .  S
C1343      C1344   1.403       .  A
C1344      N1345   1.430       .  S
N1345      H1349   1.042       .  S
N1345      H1350   1.045       .  S
N1348      H1351   1.045       .  S
N1348      H1352   1.046       .  S
C1353      C1354   1.390       .  A
C1353      C1358   1.384       .  A
C1353      H1360   1.085       .  S
C1354      C1355   1.411       .  A
C1355      C1356   1.382       .  A
C1355      N1362   1.430       .  S
C1356      C1357   1.391       .  A
C1356      H1361   1.085       .  S
C1357      C1358   1.403       .  A
C1358      N1359   1.430       .  S
N1359      H1363   1.046       .  S
N1359      H1364   1.045       .  S
N1362      H1365   1.046       .  S
N1362      H1366   1.042       .  S
C1367      C1368   1.399       .  A
C1367      C1372   1.388       .  A
C1367      H1374   1.085   1_545  S
C1368      C1369   1.396       .  A
C1369      C1370   1.385       .  A
C1369      N1376   1.431       .  S
C1370      C1371   1.396       .  A
C1370      H1375   1.080       .  S
C1371      C1372   1.398       .  A
C1372      N1373   1.431       .  S
N1373      H1377   1.045       .  S
N1373      H1378   1.045   1_545  S
N1376      H1379   1.045       .  S
N1376      H1380   1.045       .  S
C1381      C1382   1.401   1_565  A
C1381      C1386   1.406       .  A
C1381      H1388   1.084       .  S
C1382      C1383   1.410       .  A
C1383      C1384   1.420       .  A
C1383      N1390   1.431       .  S
C1384      C1385   1.414       .  A
C1384      H1389   1.083       .  S
C1385      C1386   1.426   1_545  A
C1386      N1387   1.432       .  S
N1387      H1391   1.045       .  S
N1387      H1392   1.045       .  S
N1390      H1393   1.045       .  S
N1390      H1394   1.046       .  S
C1395      C1396   1.410       .  A
C1395      C1400   1.414       .  A
C1395      H1402   1.083       .  S
C1396      C1397   1.426       .  A
C1397      C1398   1.404       .  A
C1397      N1404   1.433   1_565  S
C1398      C1399   1.402       .  A
C1398      H1403   1.085   1_565  S
C1399      C1400   1.421       .  A
C1400      N1401   1.435       .  S
N1401      H1405   1.046       .  S
N1401      H1406   1.039       .  S
N1404      H1407   1.045       .  S
N1404      H1408   1.044       .  S
C1409      C1410   1.398       .  A
C1409      C1414   1.387       .  A
C1409      H1416   1.085       .  S
C1410      C1411   1.397       .  A
C1411      C1412   1.388       .  A
C1411      N1418   1.432       .  S
C1412      C1413   1.400       .  A
C1412      H1417   1.085       .  S
C1413      C1414   1.397       .  A
C1414      N1415   1.430       .  S
N1415      H1419   1.045       .  S
N1415      H1420   1.045       .  S
N1418      H1421   1.045       .  S
N1418      H1422   1.045       .  S
C1423      C1424   1.392       .  A
C1423      C1428   1.384       .  A
C1423      H1430   1.085       .  S
C1424      C1425   1.407       .  A
C1425      C1426   1.389       .  A
C1425      N1432   1.437       .  S
C1426      C1427   1.391       .  A
C1426      H1431   1.081       .  S
C1427      C1428   1.409       .  A
C1428      N1429   1.430       .  S
N1429      H1433   1.044       .  S
N1429      H1434   1.045       .  S
N1432      H1435   1.046       .  S
N1432      H1436   1.045       .  S
C1437      C1438   1.392       .  A
C1437      C1442   1.389       .  A
C1437      H1444   1.085       .  S
C1438      C1439   1.403       .  A
C1439      C1440   1.383       .  A
C1439      N1446   1.431       .  S
C1440      C1441   1.389       .  A
C1440      H1445   1.083       .  S
C1441      C1442   1.407       .  A
C1442      N1443   1.436       .  S
N1443      H1447   1.046       .  S
N1443      H1448   1.045       .  S
N1446      H1449   1.046       .  S
N1446      H1450   1.045       .  S
C1451      C1452   1.399       .  A
C1451      C1456   1.386       .  A
C1451      H1458   1.082       .  S
C1452      C1453   1.407       .  A
C1453      C1454   1.385       .  A
C1453      N1460   1.437       .  S
C1454      C1455   1.398       .  A
C1454      H1459   1.085       .  S
C1455      C1456   1.398       .  A
C1456      N1457   1.436       .  S
N1457      H1461   1.046       .  S
N1457      H1462   1.045       .  S
N1460      H1463   1.042       .  S
N1460      H1464   1.045       .  S
C1465      C1466   1.411       .  A
C1465      C1470   1.410       .  A
C1465      H1472   1.084       .  S
C1466      C1467   1.423       .  A
C1467      C1468   1.415       .  A
C1467      N1474   1.431       .  S
C1468      C1469   1.407       .  A
C1468      H1473   1.083       .  S
C1469      C1470   1.420       .  A
C1470      N1471   1.439       .  S
N1471      H1475   1.045       .  S
N1471      H1476   1.043       .  S
N1474      H1477   1.046       .  S
N1474      H1478   1.043       .  S
C1479      C1480   1.404       .  A
C1479      C1484   1.418       .  A
C1479      H1486   1.083       .  S
C1480      C1481   1.415       .  A
C1481      C1482   1.404       .  A
C1481      N1488   1.432       .  S
C1482      C1483   1.407       .  A
C1482      H1487   1.083       .  S
C1483      C1484   1.420       .  A
C1484      N1485   1.436       .  S
N1485      H1489   1.046       .  S
N1485      H1490   1.046       .  S
N1488      H1491   1.045       .  S
N1488      H1492   1.043       .  S
C1493      C1494   1.403       .  A
C1493      C1498   1.408       .  A
C1493      H1500   1.084       .  S
C1494      C1495   1.411       .  A
C1495      C1496   1.418       .  A
C1495      N1502   1.430       .  S
C1496      C1497   1.413       .  A
C1496      H1501   1.083       .  S
C1497      C1498   1.427       .  A
C1498      N1499   1.432       .  S
N1499      H1503   1.045       .  S
N1499      H1504   1.044       .  S
N1502      H1505   1.045       .  S
N1502      H1506   1.046       .  S
C1507      C1508   1.407       .  A
C1507      C1512   1.401       .  A
C1507      H1514   1.084       .  S
C1508      C1509   1.421       .  A
C1509      C1510   1.412       .  A
C1509      N1516   1.431       .  S
C1510      C1511   1.406       .  A
C1510      H1515   1.083       .  S
C1511      C1512   1.419       .  A
C1512      N1513   1.439       .  S
N1513      H1517   1.045       .  S
N1513      H1518   1.041       .  S
N1516      H1519   1.044       .  S
N1516      H1520   1.046       .  S
C1521      C1522   1.412       .  A
C1521      C1526   1.413       .  A
C1521      H1528   1.083       .  S
C1522      C1523   1.425       .  A
C1523      C1524   1.404       .  A
C1523      N1530   1.433       .  S
C1524      C1525   1.402       .  A
C1524      H1529   1.084       .  S
C1525      C1526   1.418       .  A
C1526      N1527   1.436       .  S
N1527      H1531   1.046       .  S
N1527      H1532   1.042       .  S
N1530      H1533   1.045       .  S
N1530      H1534   1.044       .  S
C1535      C1536   1.407       .  A
C1535      C1540   1.416       .  A
C1535      H1542   1.083       .  S
C1536      C1537   1.421       .  A
C1537      C1538   1.406       .  A
C1537      N1544   1.439       .  S
C1538      C1539   1.407       .  A
C1538      H1543   1.084       .  S
C1539      C1540   1.415       .  A
C1540      N1541   1.431       .  S
N1541      H1545   1.046       .  S
N1541      H1546   1.045       .  S
N1544      H1547   1.042       .  S
N1544      H1548   1.045       .  S
C1549      C1550   1.400       .  A
C1549      C1554   1.391       .  A
C1549      H1556   1.083       .  S
C1550      C1551   1.398       .  A
C1551      C1552   1.390       .  A
C1551      N1558   1.431       .  S
C1552      C1553   1.400       .  A
C1552      H1557   1.083       .  S
C1553      C1554   1.397       .  A
C1554      N1555   1.430       .  S
N1555      H1559   1.045       .  S
N1555      H1560   1.046       .  S
N1558      H1561   1.045       .  S
N1558      H1562   1.045       .  S
C1563      C1564   1.394       .  A
C1563      C1568   1.381       .  A
C1563      H1570   1.080       .  S
C1564      C1565   1.399       .  A
C1565      C1566   1.391       .  A
C1565      N1572   1.435       .  S
C1566      C1567   1.402       .  A
C1566      H1571   1.084       .  S
C1567      C1568   1.403       .  A
C1568      N1569   1.428       .  S
N1569      H1573   1.040       .  S
N1569      H1574   1.046       .  S
N1572      H1575   1.045       .  S
N1572      H1576   1.046       .  S
C1577      C1578   1.399       .  A
C1577      C1582   1.388       .  A
C1577      H1584   1.082   1_554  S
C1578      C1579   1.397       .  A
C1579      C1580   1.391       .  A
C1579      N1586   1.431       .  S
C1580      C1581   1.401       .  A
C1580      H1585   1.082       .  S
C1581      C1582   1.397       .  A
C1582      N1583   1.431       .  S
N1583      H1587   1.045       .  S
N1583      H1588   1.045   1_554  S
N1586      H1589   1.045       .  S
N1586      H1590   1.045       .  S
C1591      C1592   1.403   1_556  A
C1591      C1596   1.407       .  A
C1591      H1598   1.084       .  S
C1592      C1593   1.408       .  A
C1593      C1594   1.417       .  A
C1593      N1600   1.431       .  S
C1594      C1595   1.414       .  A
C1594      H1599   1.083       .  S
C1595      C1596   1.427   1_554  A
C1596      N1597   1.433       .  S
N1597      H1601   1.045       .  S
N1597      H1602   1.043       .  S
N1600      H1603   1.045       .  S
N1600      H1604   1.046       .  S
C1605      C1606   1.405       .  A
C1605      C1610   1.413       .  A
C1605      H1612   1.083       .  S
C1606      C1607   1.420   1_556  A
C1607      C1608   1.407       .  A
C1607      N1614   1.439       .  S
C1608      C1609   1.409   1_554  A
C1608      H1613   1.084       .  S
C1609      C1610   1.424       .  A
C1610      N1611   1.431       .  S
N1611      H1615   1.045       .  S
N1611      H1616   1.043       .  S
N1614      H1617   1.043       .  S
N1614      H1618   1.045       .  S
C1619      C1620   1.407       .  A
C1619      C1624   1.418       .  A
C1619      H1626   1.083       .  S
C1620      C1621   1.420       .  A
C1621      C1622   1.405       .  A
C1621      N1628   1.438       .  S
C1622      C1623   1.407       .  A
C1622      H1627   1.083       .  S
C1623      C1624   1.418       .  A
C1624      N1625   1.431       .  S
N1625      H1629   1.046       .  S
N1625      H1630   1.045       .  S
N1628      H1631   1.041       .  S
N1628      H1632   1.045       .  S
C1633      C1634   1.408       .  A
C1633      C1638   1.403       .  A
C1633      H1640   1.084       .  S
C1634      C1635   1.419       .  A
C1635      C1636   1.412       .  A
C1635      N1642   1.431       .  S
C1636      C1637   1.407       .  A
C1636      H1641   1.083       .  S
C1637      C1638   1.418       .  A
C1638      N1639   1.440       .  S
N1639      H1643   1.045       .  S
N1639      H1644   1.043       .  S
N1642      H1645   1.046       .  S
N1642      H1646   1.042       .  S
C1647      C1648   1.410       .  A
C1647      C1652   1.406       .  A
C1647      H1654   1.083       .  S
C1648      C1649   1.424       .  A
C1649      C1650   1.413       .  A
C1649      N1656   1.431       .  S
C1650      C1651   1.404       .  A
C1650      H1655   1.083       .  S
C1651      C1652   1.408       .  A
C1652      N1653   1.433       .  S
N1653      H1657   1.045       .  S
N1653      H1658   1.045       .  S
N1656      H1659   1.045       .  S
N1656      H1660   1.041       .  S
C1661      C1662   1.406       .  A
C1661      C1666   1.417       .  A
C1661      H1668   1.083       .  S
C1662      C1663   1.414       .  A
C1663      C1664   1.415       .  A
C1663      N1670   1.439       .  S
C1664      C1665   1.412       .  A
C1664      H1669   1.083       .  S
C1665      C1666   1.425       .  A
C1666      N1667   1.431       .  S
N1667      H1671   1.045       .  S
N1667      H1672   1.043       .  S
N1670      H1673   1.042       .  S
N1670      H1674   1.046       .  S
C1675      C1676   1.404       .  A
C1675      C1680   1.414       .  A
C1675      H1682   1.084       .  S
C1676      C1677   1.419       .  A
C1677      C1678   1.414       .  A
C1677      N1684   1.435       .  S
C1678      C1679   1.410       .  A
C1678      H1683   1.083       .  S
C1679      C1680   1.422       .  A
C1680      N1681   1.438       .  S
N1681      H1685   1.045       .  S
N1681      H1686   1.045       .  S
N1684      H1687   1.041       .  S
N1684      H1688   1.046       .  S
C1689      C1690   1.413       .  A
C1689      C1694   1.417       .  A
C1689      H1696   1.083       .  S
C1690      C1691   1.426       .  A
C1691      C1692   1.410       .  A
C1691      N1698   1.432       .  S
C1692      C1693   1.405       .  A
C1692      H1697   1.084       .  S
C1693      C1694   1.411       .  A
C1694      N1695   1.429       .  S
N1695      H1699   1.045       .  S
N1695      H1700   1.046       .  S
N1698      H1701   1.044       .  S
N1698      H1702   1.045       .  S
C1703      C1704   1.394       .  A
C1703      C1708   1.389       .  A
C1703      H1710   1.085       .  S
C1704      C1705   1.411       .  A
C1705      C1706   1.379       .  A
C1705      N1712   1.430       .  S
C1706      C1707   1.389       .  A
C1706      H1711   1.084       .  S
C1707      C1708   1.403       .  A
C1708      N1709   1.431       .  S
N1709      H1713   1.046       .  S
N1709      H1714   1.045       .  S
N1712      H1715   1.045       .  S
N1712      H1716   1.043       .  S
C1717      C1718   1.398       .  A
C1717      C1722   1.384       .  A
C1717      H1724   1.085       .  S
C1718      C1719   1.398       .  A
C1719      C1720   1.386       .  A
C1719      N1726   1.435       .  S
C1720      C1721   1.399       .  A
C1720      H1725   1.084       .  S
C1721      C1722   1.404       .  A
C1722      N1723   1.431       .  S
N1723      H1727   1.043       .  S
N1723      H1728   1.045       .  S
N1726      H1729   1.045       .  S
N1726      H1730   1.046       .  S
C1731      C1732   1.389       .  A
C1731      C1736   1.386       .  A
C1731      H1738   1.080       .  S
C1732      C1733   1.405       .  A
C1733      C1734   1.397       .  A
C1733      N1740   1.431       .  S
C1734      C1735   1.397       .  A
C1734      H1739   1.084       .  S
C1735      C1736   1.411       .  A
C1736      N1737   1.433       .  S
N1737      H1741   1.045   1_455  S
N1737      H1742   1.046       .  S
N1740      H1743   1.045       .  S
N1740      H1744   1.045       .  S
C1745      C1746   1.410       .  A
C1745      C1750   1.419       .  A
C1745      H1752   1.083       .  S
C1746      C1747   1.421   1_655  A
C1747      C1748   1.407       .  A
C1747      N1754   1.439       .  S
C1748      C1749   1.406   1_455  A
C1748      H1753   1.084       .  S
C1749      C1750   1.415       .  A
C1750      N1751   1.431       .  S
N1751      H1755   1.045       .  S
N1751      H1756   1.046       .  S
N1754      H1757   1.042       .  S
N1754      H1758   1.045       .  S
C1759      C1760   1.413       .  A
C1759      C1764   1.416       .  A
C1759      H1766   1.082       .  S
C1760      C1761   1.424       .  A
C1761      C1762   1.408       .  A
C1761      N1768   1.432       .  S
C1762      C1763   1.405       .  A
C1762      H1767   1.084       .  S
C1763      C1764   1.419       .  A
C1764      N1765   1.437       .  S
N1765      H1769   1.045       .  S
N1765      H1770   1.043       .  S
N1768      H1771   1.045       .  S
N1768      H1772   1.045       .  S
C1773      C1774   1.411       .  A
C1773      C1778   1.409       .  A
C1773      H1780   1.083       .  S
C1774      C1775   1.419       .  A
C1775      C1776   1.425       .  A
C1775      N1782   1.436       .  S
C1776      C1777   1.410       .  A
C1776      H1781   1.082       .  S
C1777      C1778   1.419       .  A
C1778      N1779   1.439       .  S
N1779      H1783   1.046       .  S
N1779      H1784   1.043       .  S
N1782      H1785   1.046       .  S
N1782      H1786   1.046       .  S
C1787      C1788   1.398       .  A
C1787      C1792   1.389       .  A
C1787      H1794   1.082       .  S
C1788      C1789   1.397       .  A
C1789      C1790   1.389       .  A
C1789      N1796   1.431       .  S
C1790      C1791   1.399       .  A
C1790      H1795   1.085       .  S
C1791      C1792   1.398       .  A
C1792      N1793   1.431       .  S
N1793      H1797   1.045       .  S
N1793      H1798   1.045       .  S
N1796      H1799   1.045       .  S
N1796      H1800   1.045       .  S
C1801      C1802   1.400       .  A
C1801      C1806   1.387       .  A
C1801      H1808   1.084       .  S
C1802      C1803   1.405       .  A
C1803      C1804   1.383       .  A
C1803      N1810   1.432       .  S
C1804      C1805   1.396       .  A
C1804      H1809   1.081       .  S
C1805      C1806   1.397       .  A
C1806      N1807   1.435       .  S
N1807      H1811   1.046       .  S
N1807      H1812   1.045       .  S
N1810      H1813   1.046       .  S
N1810      H1814   1.042       .  S
C1815      C1816   1.409       .  A
C1815      C1820   1.409       .  A
C1815      H1822   1.083       .  S
C1816      C1817   1.419       .  A
C1817      C1818   1.421       .  A
C1817      N1824   1.431       .  S
C1818      C1819   1.408       .  A
C1818      H1823   1.083       .  S
C1819      C1820   1.421       .  A
C1820      N1821   1.438   1_655  S
N1821      H1825   1.045       .  S
N1821      H1826   1.042       .  S
N1824      H1827   1.045       .  S
N1824      H1828   1.045       .  S
C1829      C1830   1.409       .  A
C1829      C1834   1.409       .  A
C1829      H1836   1.083       .  S
C1830      C1831   1.416       .  A
C1831      C1832   1.418       .  A
C1831      N1838   1.431       .  S
C1832      C1833   1.408       .  A
C1832      H1837   1.082       .  S
C1833      C1834   1.421       .  A
C1834      N1835   1.439   1_655  S
N1835      H1839   1.045       .  S
N1835      H1840   1.043       .  S
N1838      H1841   1.045       .  S
N1838      H1842   1.046       .  S
C1843      C1844   1.408       .  A
C1843      C1848   1.406       .  A
C1843      H1850   1.084       .  S
C1844      C1845   1.423       .  A
C1845      C1846   1.416       .  A
C1845      N1852   1.432       .  S
C1846      C1847   1.408       .  A
C1846      H1851   1.083       .  S
C1847      C1848   1.419       .  A
C1848      N1849   1.439       .  S
N1849      H1853   1.045       .  S
N1849      H1854   1.041       .  S
N1852      H1855   1.041       .  S
N1852      H1856   1.045       .  S
C1857      C1858   1.413       .  A
C1857      C1862   1.416       .  A
C1857      H1864   1.083       .  S
C1858      C1859   1.425       .  A
C1859      C1860   1.406       .  A
C1859      N1866   1.432       .  S
C1860      C1861   1.402       .  A
C1860      H1865   1.084       .  S
C1861      C1862   1.419       .  A
C1862      N1863   1.437       .  S
N1863      H1867   1.045       .  S
N1863      H1868   1.043       .  S
N1866      H1869   1.045       .  S
N1866      H1870   1.045       .  S
C1871      C1872   1.403       .  A
C1871      C1876   1.406       .  A
C1871      H1878   1.084       .  S
C1872      C1873   1.420       .  A
C1873      C1874   1.417       .  A
C1873      N1880   1.436       .  S
C1874      C1875   1.412       .  A
C1874      H1879   1.083       .  S
C1875      C1876   1.426       .  A
C1876      N1877   1.433       .  S
N1877      H1881   1.044       .  S
N1877      H1882   1.045       .  S
N1880      H1883   1.043       .  S
N1880      H1884   1.045       .  S
C1885      C1886   1.413       .  A
C1885      C1890   1.419       .  A
C1885      H1892   1.083       .  S
C1886      C1887   1.428       .  A
C1887      C1888   1.406       .  A
C1887      N1894   1.433       .  S
C1888      C1889   1.402       .  A
C1888      H1893   1.084       .  S
C1889      C1890   1.420       .  A
C1890      N1891   1.437       .  S
N1891      H1895   1.045       .  S
N1891      H1896   1.043       .  S
N1894      H1897   1.044       .  S
N1894      H1898   1.045       .  S
C1899      C1900   1.400       .  A
C1899      C1904   1.402       .  A
C1899      H1906   1.084       .  S
C1900      C1901   1.412       .  A
C1901      C1902   1.421       .  A
C1901      N1908   1.436       .  S
C1902      C1903   1.413       .  A
C1902      H1907   1.083       .  S
C1903      C1904   1.427       .  A
C1904      N1905   1.433       .  S
N1905      H1909   1.045       .  S
N1905      H1910   1.043       .  S
N1908      H1911   1.044       .  S
N1908      H1912   1.045       .  S
C1913      C1914   1.403       .  A
C1913      C1918   1.409       .  A
C1913      H1920   1.084       .  S
C1914      C1915   1.412       .  A
C1915      C1916   1.418       .  A
C1915      N1922   1.429       .  S
C1916      C1917   1.411       .  A
C1916      H1921   1.083       .  S
C1917      C1918   1.427       .  A
C1918      N1919   1.432       .  S
N1919      H1923   1.045       .  S
N1919      H1924   1.045       .  S
N1922      H1925   1.045       .  S
N1922      H1926   1.045       .  S
C1927      C1928   1.392       .  A
C1927      C1932   1.383       .  A
C1927      H1934   1.085       .  S
C1928      C1929   1.406       .  A
C1929      C1930   1.382       .  A
C1929      N1936   1.431       .  S
C1930      C1931   1.388       .  A
C1930      H1935   1.084       .  S
C1931      C1932   1.409       .  A
C1932      N1933   1.429       .  S
N1933      H1937   1.043       .  S
N1933      H1938   1.045       .  S
N1936      H1939   1.045       .  S
N1936      H1940   1.046       .  S
C1941      C1942   1.397       .  A
C1941      C1946   1.382       .  A
C1941      H1948   1.083       .  S
C1942      C1943   1.397       .  A
C1943      C1944   1.385       .  A
C1943      N1950   1.436       .  S
C1944      C1945   1.399       .  A
C1944      H1949   1.084   1_556  S
C1945      C1946   1.403       .  A
C1946      N1947   1.431       .  S
N1947      H1951   1.041       .  S
N1947      H1952   1.045       .  S
N1950      H1953   1.045       .  S
N1950      H1954   1.046       .  S
C1955      C1956   1.400       .  A
C1955      C1960   1.386       .  A
C1955      H1962   1.085       .  S
C1956      C1957   1.408       .  A
C1957      C1958   1.387       .  A
C1957      N1964   1.436       .  S
C1958      C1959   1.398       .  A
C1958      H1963   1.085       .  S
C1959      C1960   1.396       .  A
C1960      N1961   1.432       .  S
N1961      H1965   1.045       .  S
N1961      H1966   1.045       .  S
N1964      H1967   1.043       .  S
N1964      H1968   1.044       .  S
C1969      C1970   1.413       .  A
C1969      C1974   1.421       .  A
C1969      H1976   1.083       .  S
C1970      C1971   1.426       .  A
C1971      C1972   1.404       .  A
C1971      N1978   1.433       .  S
C1972      C1973   1.401       .  A
C1972      H1977   1.084       .  S
C1973      C1974   1.421       .  A
C1974      N1975   1.437       .  S
N1975      H1979   1.046       .  S
N1975      H1980   1.043       .  S
N1978      H1981   1.046       .  S
N1978      H1982   1.044       .  S
C1983      C1984   1.410       .  A
C1983      C1988   1.409       .  A
C1983      H1990   1.083       .  S
C1984      C1985   1.423       .  A
C1985      C1986   1.416       .  A
C1985      N1992   1.431       .  S
C1986      C1987   1.408       .  A
C1986      H1991   1.082       .  S
C1987      C1988   1.420       .  A
C1988      N1989   1.439       .  S
N1989      H1993   1.046       .  S
N1989      H1994   1.041       .  S
N1992      H1995   1.044       .  S
N1992      H1996   1.045       .  S
C1997      C1998   1.407       .  A
C1997      C2002   1.405       .  A
C1997      H2004   1.084       .  S
C1998      C1999   1.418       .  A
C1999      C2000   1.420       .  A
C1999      N2006   1.436       .  S
C2000      C2001   1.407       .  A
C2000      H2005   1.083       .  S
C2001      C2002   1.420       .  A
C2002      N2003   1.440   1_556  S
N2003      H2007   1.045       .  S
N2003      H2008   1.042       .  S
N2006      H2009   1.046       .  S
N2006      H2010   1.046       .  S
C2011      C2012   1.403       .  A
C2011      C2016   1.408       .  A
C2011      H2018   1.084       .  S
C2012      C2013   1.408       .  A
C2013      C2014   1.417       .  A
C2013      N2020   1.430       .  S
C2014      C2015   1.414       .  A
C2014      H2019   1.083       .  S
C2015      C2016   1.426       .  A
C2016      N2017   1.432       .  S
N2017      H2021   1.044       .  S
N2017      H2022   1.045       .  S
N2020      H2023   1.045       .  S
N2020      H2024   1.045       .  S
C2025      C2026   1.406       .  A
C2025      C2030   1.415       .  A
C2025      H2032   1.084       .  S
C2026      C2027   1.416       .  A
C2027      C2028   1.418       .  A
C2027      N2034   1.429       .  S
C2028      C2029   1.411       .  A
C2028      H2033   1.083       .  S
C2029      C2030   1.419       .  A
C2030      N2031   1.432       .  S
N2031      H2035   1.046       .  S
N2031      H2036   1.046       .  S
N2034      H2037   1.045       .  S
N2034      H2038   1.045       .  S
C2039      C2040   1.408       .  A
C2039      C2044   1.403       .  A
C2039      H2046   1.083       .  S
C2040      C2041   1.421       .  A
C2041      C2042   1.408       .  A
C2041      N2048   1.432       .  S
C2042      C2043   1.403       .  A
C2042      H2047   1.084       .  S
C2043      C2044   1.418       .  A
C2044      N2045   1.441       .  S
N2045      H2049   1.041       .  S
N2045      H2050   1.046       .  S
N2048      H2051   1.043       .  S
N2048      H2052   1.046       .  S
C2053      C2054   1.394       .  A
C2053      C2058   1.382       .  A
C2053      H2060   1.083       .  S
C2054      C2055   1.398       .  A
C2055      C2056   1.387       .  A
C2055      N2062   1.430       .  S
C2056      C2057   1.398       .  A
C2056      H2061   1.085       .  S
C2057      C2058   1.405       .  A
C2058      N2059   1.427       .  S
N2059      H2063   1.041       .  S
N2059      H2064   1.043       .  S
N2062      H2065   1.045       .  S
N2062      H2066   1.044       .  S
C2067      C2068   1.389       .  A
C2067      C2072   1.383       .  A
C2067      H2074   1.084       .  S
C2068      C2069   1.410       .  A
C2069      C2070   1.384       .  A
C2069      N2076   1.430       .  S
C2070      C2071   1.392       .  A
C2070      H2075   1.085       .  S
C2071      C2072   1.407       .  A
C2072      N2073   1.431       .  S
N2073      H2077   1.046       .  S
N2073      H2078   1.045       .  S
N2076      H2079   1.045       .  S
N2076      H2080   1.044       .  S
C2081      C2082   1.401       .  A
C2081      C2086   1.391       .  A
C2081      H2088   1.085       .  S
C2082      C2083   1.406       .  A
C2083      C2084   1.388       .  A
C2083      N2090   1.436       .  S
C2084      C2085   1.398       .  A
C2084      H2089   1.081       .  S
C2085      C2086   1.397       .  A
C2086      N2087   1.429       .  S
N2087      H2091   1.045       .  S
N2087      H2092   1.045       .  S
N2090      H2093   1.041       .  S
N2090      H2094   1.045       .  S
C2095      C2096   1.411       .  A
C2095      C2100   1.419       .  A
C2095      H2102   1.080       .  S
C2096      C2097   1.421       .  A
C2097      C2098   1.412       .  A
C2097      N2104   1.439       .  S
C2098      C2099   1.411       .  A
C2098      H2103   1.083       .  S
C2099      C2100   1.423       .  A
C2100      N2101   1.431       .  S
N2101      H2105   1.046       .  S
N2101      H2106   1.042       .  S
N2104      H2107   1.042       .  S
N2104      H2108   1.045       .  S
C2109      C2110   1.415       .  A
C2109      C2114   1.417       .  A
C2109      H2116   1.083       .  S
C2110      C2111   1.425       .  A
C2111      C2112   1.405       .  A
C2111      N2118   1.433       .  S
C2112      C2113   1.403       .  A
C2112      H2117   1.084       .  S
C2113      C2114   1.417       .  A
C2114      N2115   1.437       .  S
N2115      H2119   1.046       .  S
N2115      H2120   1.043       .  S
N2118      H2121   1.045       .  S
N2118      H2122   1.043       .  S
C2123      C2124   1.409       .  A
C2123      C2128   1.409       .  A
C2123      H2130   1.083       .  S
C2124      C2125   1.423       .  A
C2125      C2126   1.415       .  A
C2125      N2132   1.432       .  S
C2126      C2127   1.407       .  A
C2126      H2131   1.081       .  S
C2127      C2128   1.410       .  A
C2128      N2129   1.432       .  S
N2129      H2133   1.044       .  S
N2129      H2134   1.045       .  S
N2132      H2135   1.042       .  S
N2132      H2136   1.045       .  S
C2137      C2138   1.409       .  A
C2137      C2142   1.406       .  A
C2137      H2144   1.083       .  S
C2138      C2139   1.416       .  A
C2139      C2140   1.420       .  A
C2139      N2146   1.431       .  S
C2140      C2141   1.409       .  A
C2140      H2145   1.083       .  S
C2141      C2142   1.420       .  A
C2142      N2143   1.440       .  S
N2143      H2147   1.045       .  S
N2143      H2148   1.043       .  S
N2146      H2149   1.046       .  S
N2146      H2150   1.045       .  S
C2151      C2152   1.402       .  A
C2151      C2156   1.411       .  A
C2151      H2158   1.084       .  S
C2152      C2153   1.412       .  A
C2153      C2154   1.421       .  A
C2153      N2160   1.430       .  S
C2154      C2155   1.413       .  A
C2154      H2159   1.083       .  S
C2155      C2156   1.420       .  A
C2156      N2157   1.432       .  S
N2157      H2161   1.046       .  S
N2157      H2162   1.045       .  S
N2160      H2163   1.045       .  S
N2160      H2164   1.045       .  S
C2165      C2166   1.409       .  A
C2165      C2170   1.415       .  A
C2165      H2172   1.083       .  S
C2166      C2167   1.420       .  A
C2167      C2168   1.407       .  A
C2167      N2174   1.439       .  S
C2168      C2169   1.407       .  A
C2168      H2173   1.084       .  S
C2169      C2170   1.423       .  A
C2170      N2171   1.433       .  S
N2171      H2175   1.046       .  S
N2171      H2176   1.043       .  S
N2174      H2177   1.043       .  S
N2174      H2178   1.044       .  S
C2179      C2180   1.403       .  A
C2179      C2184   1.406       .  A
C2179      H2186   1.084       .  S
C2180      C2181   1.421       .  A
C2181      C2182   1.415       .  A
C2181      N2188   1.436       .  S
C2182      C2183   1.411       .  A
C2182      H2187   1.083       .  S
C2183      C2184   1.426       .  A
C2184      N2185   1.433       .  S
N2185      H2189   1.043       .  S
N2185      H2190   1.045       .  S
N2188      H2191   1.041       .  S
N2188      H2192   1.045       .  S
C2193      C2194   1.391       .  A
C2193      C2198   1.388       .  A
C2193      H2200   1.083       .  S
C2194      C2195   1.402       .  A
C2195      C2196   1.386       .  A
C2195      N2202   1.431   1_554  S
C2196      C2197   1.392       .  A
C2196      H2201   1.085       .  S
C2197      C2198   1.408       .  A
C2198      N2199   1.437       .  S
N2199      H2203   1.046       .  S
N2199      H2204   1.045       .  S
N2202      H2205   1.046       .  S
N2202      H2206   1.045       .  S
C2207      C2208   1.395       .  A
C2207      C2212   1.390       .  A
C2207      H2214   1.084       .  S
C2208      C2209   1.408       .  A
C2209      C2210   1.379       .  A
C2209      N2216   1.431       .  S
C2210      C2211   1.385       .  A
C2210      H2215   1.078       .  S
C2211      C2212   1.410       .  A
C2212      N2213   1.430   1_455  S
N2213      H2217   1.044       .  S
N2213      H2218   1.046       .  S
N2216      H2219   1.045       .  S
N2216      H2220   1.046       .  S
C2221      C2222   1.408   1_455  A
C2221      C2226   1.408       .  A
C2221      H2228   1.084       .  S
C2222      C2223   1.420       .  A
C2223      C2224   1.411       .  A
C2223      N2230   1.433       .  S
C2224      C2225   1.408       .  A
C2224      H2229   1.081       .  S
C2225      C2226   1.421   1_655  A
C2226      N2227   1.440   1_554  S
N2227      H2231   1.046       .  S
N2227      H2232   1.042       .  S
N2230      H2233   1.046       .  S
N2230      H2234   1.042       .  S
C2235      C2236   1.412       .  A
C2235      C2240   1.417       .  A
C2235      H2242   1.083       .  S
C2236      C2237   1.416       .  A
C2237      C2238   1.407       .  A
C2237      N2244   1.432       .  S
C2238      C2239   1.402       .  A
C2238      H2243   1.084       .  S
C2239      C2240   1.419       .  A
C2240      N2241   1.437       .  S
N2241      H2245   1.046       .  S
N2241      H2246   1.043       .  S
N2244      H2247   1.046       .  S
N2244      H2248   1.046       .  S
C2249      C2250   1.412       .  A
C2249      C2254   1.417       .  A
C2249      H2256   1.080       .  S
C2250      C2251   1.429       .  A
C2251      C2252   1.408       .  A
C2251      N2258   1.433       .  S
C2252      C2253   1.403       .  A
C2252      H2257   1.084       .  S
C2253      C2254   1.410       .  A
C2254      N2255   1.430       .  S
N2255      H2259   1.045       .  S
N2255      H2260   1.045       .  S
N2258      H2261   1.044       .  S
N2258      H2262   1.044       .  S
C2263      C2264   1.387       .  A
C2263      C2268   1.381       .  A
C2263      H2270   1.075       .  S
C2264      C2265   1.409       .  A
C2265      C2266   1.388       .  A
C2265      N2272   1.429       .  S
C2266      C2267   1.395       .  A
C2266      H2271   1.084       .  S
C2267      C2268   1.407       .  A
C2268      N2269   1.433   1_554  S
N2269      H2273   1.046   1_556  S
N2269      H2274   1.045       .  S
N2272      H2275   1.045       .  S
N2272      H2276   1.042       .  S
C2277      C2278   1.400       .  A
C2277      C2282   1.390       .  A
C2277      H2284   1.085   1_556  S
C2278      C2279   1.397       .  A
C2279      C2280   1.388       .  A
C2279      N2286   1.430       .  S
C2280      C2281   1.397       .  A
C2280      H2285   1.082       .  S
C2281      C2282   1.399       .  A
C2282      N2283   1.431       .  S
N2283      H2287   1.045   1_556  S
N2283      H2288   1.045       .  S
N2286      H2289   1.045       .  S
N2286      H2290   1.045       .  S
C2291      C2292   1.392       .  A
C2291      C2296   1.382       .  A
C2291      H2298   1.084       .  S
C2292      C2293   1.406       .  A
C2293      C2294   1.383       .  A
C2293      N2300   1.432       .  S
C2294      C2295   1.390       .  A
C2294      H2299   1.083       .  S
C2295      C2296   1.408       .  A
C2296      N2297   1.431   1_565  S
N2297      H2301   1.043       .  S
N2297      H2302   1.046       .  S
N2300      H2303   1.046       .  S
N2300      H2304   1.046       .  S
C2305      C2306   1.393       .  A
C2305      C2310   1.384       .  A
C2305      H2312   1.085       .  S
C2306      C2307   1.405       .  A
C2307      C2308   1.385       .  A
C2307      N2314   1.432       .  S
C2308      C2309   1.391       .  A
C2308      H2313   1.082       .  S
C2309      C2310   1.408       .  A
C2310      N2311   1.430   1_565  S
N2311      H2315   1.043       .  S
N2311      H2316   1.045       .  S
N2314      H2317   1.046       .  S
N2314      H2318   1.046       .  S
C2319      C2320   1.411       .  A
C2319      C2324   1.416       .  A
C2319      H2326   1.083       .  S
C2320      C2321   1.427       .  A
C2321      C2322   1.405       .  A
C2321      N2328   1.433       .  S
C2322      C2323   1.402       .  A
C2322      H2327   1.084       .  S
C2323      C2324   1.410       .  A
C2324      N2325   1.428       .  S
N2325      H2329   1.045       .  S
N2325      H2330   1.046       .  S
N2328      H2331   1.046       .  S
N2328      H2332   1.044       .  S
C2333      C2334   1.414       .  A
C2333      C2338   1.421       .  A
C2333      H2340   1.083       .  S
C2334      C2335   1.426       .  A
C2335      C2336   1.406       .  A
C2335      N2342   1.432       .  S
C2336      C2337   1.402       .  A
C2336      H2341   1.084       .  S
C2337      C2338   1.421       .  A
C2338      N2339   1.437       .  S
N2339      H2343   1.045       .  S
N2339      H2344   1.044       .  S
N2342      H2345   1.045       .  S
N2342      H2346   1.045       .  S
C2347      C2348   1.414       .  A
C2347      C2352   1.422       .  A
C2347      H2354   1.083       .  S
C2348      C2349   1.430       .  A
C2349      C2350   1.407       .  A
C2349      N2356   1.432   1_554  S
C2350      C2351   1.401       .  A
C2350      H2355   1.084   1_564  S
C2351      C2352   1.412       .  A
C2352      N2353   1.430       .  S
N2353      H2357   1.045       .  S
N2353      H2358   1.045       .  S
N2356      H2359   1.045   1_556  S
N2356      H2360   1.045       .  S
C2361      C2362   1.390       .  A
C2361      C2366   1.383       .  A
C2361      H2368   1.082       .  S
C2362      C2363   1.408       .  A
C2363      C2364   1.384       .  A
C2363      N2370   1.430   1_455  S
C2364      C2365   1.394       .  A
C2364      H2369   1.084       .  S
C2365      C2366   1.405       .  A
C2366      N2367   1.430       .  S
N2367      H2371   1.046       .  S
N2367      H2372   1.046       .  S
N2370      H2373   1.046       .  S
N2370      H2374   1.043       .  S
C2375      C2376   1.391       .  A
C2375      C2380   1.387       .  A
C2375      H2382   1.085       .  S
C2376      C2377   1.407       .  A
C2377      C2378   1.386       .  A
C2377      N2384   1.432   1_655  S
C2378      C2379   1.390       .  A
C2378      H2383   1.084       .  S
C2379      C2380   1.404       .  A
C2380      N2381   1.429       .  S
N2381      H2385   1.046       .  S
N2381      H2386   1.046       .  S
N2384      H2387   1.046   1_455  S
N2384      H2388   1.045       .  S
C2389      C2390   1.392       .  A
C2389      C2394   1.384       .  A
C2389      H2396   1.085       .  S
C2390      C2391   1.410       .  A
C2391      C2392   1.382       .  A
C2391      N2398   1.430       .  S
C2392      C2393   1.391       .  A
C2392      H2397   1.085       .  S
C2393      C2394   1.411       .  A
C2394      N2395   1.430       .  S
N2395      H2399   1.043       .  S
N2395      H2400   1.045       .  S
N2398      H2401   1.045       .  S
N2398      H2402   1.043       .  S
C2403      C2404   1.390       .  A
C2403      C2408   1.381       .  A
C2403      H2410   1.085       .  S
C2404      C2405   1.403       .  A
C2405      C2406   1.385       .  A
C2405      N2412   1.429       .  S
C2406      C2407   1.391       .  A
C2406      H2411   1.085       .  S
C2407      C2408   1.411       .  A
C2408      N2409   1.429       .  S
N2409      H2413   1.043       .  S
N2409      H2414   1.046       .  S
N2412      H2415   1.045       .  S
N2412      H2416   1.046       .  S
C2417      C2418   1.405       .  A
C2417      C2422   1.418       .  A
C2417      H2424   1.083       .  S
C2418      C2419   1.410       .  A
C2419      C2420   1.409       .  A
C2419      N2426   1.433       .  S
C2420      C2421   1.408       .  A
C2420      H2425   1.083       .  S
C2421      C2422   1.419       .  A
C2422      N2423   1.431       .  S
N2423      H2427   1.046       .  S
N2423      H2428   1.045       .  S
N2426      H2429   1.045       .  S
N2426      H2430   1.045       .  S
C2431      C2432   1.410       .  A
C2431      C2436   1.416       .  A
C2431      H2438   1.084       .  S
C2432      C2433   1.425   1_455  A
C2433      C2434   1.406       .  A
C2433      N2440   1.432       .  S
C2434      C2435   1.403   1_655  A
C2434      H2439   1.084       .  S
C2435      C2436   1.422       .  A
C2436      N2437   1.435       .  S
N2437      H2441   1.045       .  S
N2437      H2442   1.040       .  S
N2440      H2443   1.045       .  S
N2440      H2444   1.045       .  S
C2445      C2446   1.410       .  A
C2445      C2450   1.406       .  A
C2445      H2452   1.083       .  S
C2446      C2447   1.417       .  A
C2447      C2448   1.418       .  A
C2447      N2454   1.431       .  S
C2448      C2449   1.406       .  A
C2448      H2453   1.082       .  S
C2449      C2450   1.414       .  A
C2450      N2451   1.433       .  S
N2451      H2455   1.045       .  S
N2451      H2456   1.043       .  S
N2454      H2457   1.044       .  S
N2454      H2458   1.045       .  S
C2459      C2460   1.408       .  A
C2459      C2464   1.406       .  A
C2459      H2466   1.084       .  S
C2460      C2461   1.416       .  A
C2461      C2462   1.417       .  A
C2461      N2468   1.431       .  S
C2462      C2463   1.407       .  A
C2462      H2467   1.083       .  S
C2463      C2464   1.420       .  A
C2464      N2465   1.440   1_565  S
N2465      H2469   1.045       .  S
N2465      H2470   1.043       .  S
N2468      H2471   1.045       .  S
N2468      H2472   1.046       .  S
C2473      C2474   1.401       .  A
C2473      C2478   1.409       .  A
C2473      H2480   1.084   1_545  S
C2474      C2475   1.410       .  A
C2475      C2476   1.417       .  A
C2475      N2482   1.430       .  S
C2476      C2477   1.413       .  A
C2476      H2481   1.083       .  S
C2477      C2478   1.420       .  A
C2478      N2479   1.433       .  S
N2479      H2483   1.046       .  S
N2479      H2484   1.045   1_545  S
N2482      H2485   1.046       .  S
N2482      H2486   1.045       .  S
C2487      C2488   1.407       .  A
C2487      C2492   1.418       .  A
C2487      H2494   1.083       .  S
C2488      C2489   1.408   1_565  A
C2489      C2490   1.411   1_545  A
C2489      N2496   1.432   1_455  S
C2490      C2491   1.412       .  A
C2490      H2495   1.083   1_565  S
C2491      C2492   1.427       .  A
C2492      N2493   1.432       .  S
N2493      H2497   1.046       .  S
N2493      H2498   1.042       .  S
N2496      H2499   1.045   1_655  S
N2496      H2500   1.045       .  S
C2501      C2502   1.402   1_655  A
C2501      C2506   1.402       .  A
C2501      H2508   1.083       .  S
C2502      C2503   1.419       .  A
C2503      C2504   1.415       .  A
C2503      N2510   1.436       .  S
C2504      C2505   1.411       .  A
C2504      H2509   1.083       .  S
C2505      C2506   1.424   1_455  A
C2506      N2507   1.433       .  S
N2507      H2511   1.045       .  S
N2507      H2512   1.045       .  S
N2510      H2513   1.044       .  S
N2510      H2514   1.045       .  S
C2515      C2516   1.410       .  A
C2515      C2520   1.421       .  A
C2515      H2522   1.082       .  S
C2516      C2517   1.420   1_655  A
C2517      C2518   1.409       .  A
C2517      N2524   1.440       .  S
C2518      C2519   1.410   1_455  A
C2518      H2523   1.083       .  S
C2519      C2520   1.417       .  A
C2520      N2521   1.431       .  S
N2521      H2525   1.046       .  S
N2521      H2526   1.045       .  S
N2524      H2527   1.043       .  S
N2524      H2528   1.046       .  S
C2529      C2530   1.391       .  A
C2529      C2534   1.384       .  A
C2529      H2536   1.084       .  S
C2530      C2531   1.407       .  A
C2531      C2532   1.386       .  A
C2531      N2538   1.431   1_655  S
C2532      C2533   1.391       .  A
C2532      H2537   1.084       .  S
C2533      C2534   1.408       .  A
C2534      N2535   1.428       .  S
N2535      H2539   1.043       .  S
N2535      H2540   1.046       .  S
N2538      H2541   1.045       .  S
N2538      H2542   1.046   1_455  S
C2543      C2544   1.389       .  A
C2543      C2548   1.384       .  A
C2543      H2550   1.084       .  S
C2544      C2545   1.411       .  A
C2545      C2546   1.388       .  A
C2545      N2552   1.431   1_545  S
C2546      C2547   1.395       .  A
C2546      H2551   1.085       .  S
C2547      C2548   1.407       .  A
C2548      N2549   1.431       .  S
N2549      H2553   1.046       .  S
N2549      H2554   1.046       .  S
N2552      H2555   1.045       .  S
N2552      H2556   1.043       .  S
C2557      C2558   1.392       .  A
C2557      C2562   1.389       .  A
C2557      H2564   1.083       .  S
C2558      C2559   1.412       .  A
C2559      C2560   1.384       .  A
C2559      N2566   1.429   1_565  S
C2560      C2561   1.391       .  A
C2560      H2565   1.085       .  S
C2561      C2562   1.405       .  A
C2562      N2563   1.431       .  S
N2563      H2567   1.046       .  S
N2563      H2568   1.045       .  S
N2566      H2569   1.045       .  S
N2566      H2570   1.042       .  S
C2571      C2572   1.399       .  A
C2571      C2576   1.388       .  A
C2571      H2578   1.084       .  S
C2572      C2573   1.404       .  A
C2573      C2574   1.383       .  A
C2573      N2580   1.431       .  S
C2574      C2575   1.397       .  A
C2574      H2579   1.085   1_655  S
C2575      C2576   1.399       .  A
C2576      N2577   1.436       .  S
N2577      H2581   1.046       .  S
N2577      H2582   1.045       .  S
N2580      H2583   1.046   1_655  S
N2580      H2584   1.041       .  S
C2585      C2586   1.411       .  A
C2585      C2590   1.416       .  A
C2585      H2592   1.083       .  S
C2586      C2587   1.418       .  A
C2587      C2588   1.411       .  A
C2587      N2594   1.432       .  S
C2588      C2589   1.404       .  A
C2588      H2593   1.084       .  S
C2589      C2590   1.423       .  A
C2590      N2591   1.436       .  S
N2591      H2595   1.047       .  S
N2591      H2596   1.040       .  S
N2594      H2597   1.046       .  S
N2594      H2598   1.046       .  S
C2599      C2600   1.410       .  A
C2599      C2604   1.411       .  A
C2599      H2606   1.083       .  S
C2600      C2601   1.417       .  A
C2601      C2602   1.418       .  A
C2601      N2608   1.431       .  S
C2602      C2603   1.407       .  A
C2602      H2607   1.081       .  S
C2603      C2604   1.421       .  A
C2604      N2605   1.439       .  S
N2605      H2609   1.046       .  S
N2605      H2610   1.043       .  S
N2608      H2611   1.045       .  S
N2608      H2612   1.046       .  S
C2613      C2614   1.412       .  A
C2613      C2618   1.418       .  A
C2613      H2620   1.083       .  S
C2614      C2615   1.418   1_545  A
C2615      C2616   1.411       .  A
C2615      N2622   1.432       .  S
C2616      C2617   1.404   1_565  A
C2616      H2621   1.084       .  S
C2617      C2618   1.421       .  A
C2618      N2619   1.437       .  S
N2619      H2623   1.046       .  S
N2619      H2624   1.042       .  S
N2622      H2625   1.046       .  S
N2622      H2626   1.046   1_655  S
C2627      C2628   1.400       .  A
C2627      C2632   1.389       .  A
C2627      H2634   1.082       .  S
C2628      C2629   1.406       .  A
C2629      C2630   1.386       .  A
C2629      N2636   1.435       .  S
C2630      C2631   1.397       .  A
C2630      H2635   1.085   1_556  S
C2631      C2632   1.397       .  A
C2632      N2633   1.432       .  S
N2633      H2637   1.045       .  S
N2633      H2638   1.045       .  S
N2636      H2639   1.043       .  S
N2636      H2640   1.043       .  S
C2641      C2642   1.400       .  A
C2641      C2646   1.389       .  A
C2641      H2648   1.085   1_455  S
C2642      C2643   1.399       .  A
C2643      C2644   1.393       .  A
C2643      N2650   1.436       .  S
C2644      C2645   1.403       .  A
C2644      H2649   1.083       .  S
C2645      C2646   1.405       .  A
C2646      N2647   1.431       .  S
N2647      H2651   1.042       .  S
N2647      H2652   1.045       .  S
N2650      H2653   1.045       .  S
N2650      H2654   1.046       .  S
C2655      C2656   1.394       .  A
C2655      C2660   1.393       .  A
C2655      H2662   1.084       .  S
C2656      C2657   1.413       .  A
C2657      C2658   1.384       .  A
C2657      N2664   1.430   1_655  S
C2658      C2659   1.391       .  A
C2658      H2663   1.085       .  S
C2659      C2660   1.406       .  A
C2660      N2661   1.437       .  S
N2661      H2665   1.045       .  S
N2661      H2666   1.046       .  S
N2664      H2667   1.045       .  S
N2664      H2668   1.043       .  S
C2669      C2670   1.397       .  A
C2669      C2674   1.388       .  A
C2669      H2676   1.082       .  S
C2670      C2671   1.398       .  A
C2671      C2672   1.390       .  A
C2671      N2678   1.431       .  S
C2672      C2673   1.400       .  A
C2672      H2677   1.084   1_556  S
C2673      C2674   1.398       .  A
C2674      N2675   1.430       .  S
N2675      H2679   1.045       .  S
N2675      H2680   1.045       .  S
N2678      H2681   1.045       .  S
N2678      H2682   1.045   1_556  S
C2683      C2684   1.410       .  A
C2683      C2688   1.410       .  A
C2683      H2690   1.084       .  S
C2684      C2685   1.423       .  A
C2685      C2686   1.413       .  A
C2685      N2692   1.431       .  S
C2686      C2687   1.406       .  A
C2686      H2691   1.081       .  S
C2687      C2688   1.420       .  A
C2688      N2689   1.439       .  S
N2689      H2693   1.045       .  S
N2689      H2694   1.043       .  S
N2692      H2695   1.046       .  S
N2692      H2696   1.042       .  S
C2697      C2698   1.402   1_655  A
C2697      C2702   1.401       .  A
C2697      H2704   1.084       .  S
C2698      C2699   1.418       .  A
C2699      C2700   1.414       .  A
C2699      N2706   1.437       .  S
C2700      C2701   1.411       .  A
C2700      H2705   1.084       .  S
C2701      C2702   1.422   1_455  A
C2702      N2703   1.432       .  S
N2703      H2707   1.044       .  S
N2703      H2708   1.046       .  S
N2706      H2709   1.043       .  S
N2706      H2710   1.045       .  S
C2711      C2712   1.408       .  A
C2711      C2716   1.408       .  A
C2711      H2718   1.083       .  S
C2712      C2713   1.419       .  A
C2713      C2714   1.418       .  A
C2713      N2720   1.431       .  S
C2714      C2715   1.406       .  A
C2714      H2719   1.084       .  S
C2715      C2716   1.421       .  A
C2716      N2717   1.440       .  S
N2717      H2721   1.044       .  S
N2717      H2722   1.043       .  S
N2720      H2723   1.045       .  S
N2720      H2724   1.046       .  S
C2725      C2726   1.404       .  A
C2725      C2730   1.412       .  A
C2725      H2732   1.084   1_544  S
C2726      C2727   1.421       .  A
C2727      C2728   1.419       .  A
C2727      N2734   1.437       .  S
C2728      C2729   1.413       .  A
C2728      H2733   1.083       .  S
C2729      C2730   1.418       .  A
C2730      N2731   1.432   1_554  S
N2731      H2735   1.046   1_546  S
N2731      H2736   1.046       .  S
N2734      H2737   1.043       .  S
N2734      H2738   1.045       .  S
C2739      C2740   1.409   1_565  A
C2739      C2744   1.406       .  A
C2739      H2746   1.084       .  S
C2740      C2741   1.420       .  A
C2741      C2742   1.413       .  A
C2741      N2748   1.432       .  S
C2742      C2743   1.408       .  A
C2742      H2747   1.083       .  S
C2743      C2744   1.420   1_545  A
C2744      N2745   1.440       .  S
N2745      H2749   1.046   1_455  S
N2745      H2750   1.043   1_455  S
N2748      H2751   1.045       .  S
N2748      H2752   1.043       .  S
C2753      C2754   1.415       .  A
C2753      C2758   1.422       .  A
C2753      H2760   1.083       .  S
C2754      C2755   1.430       .  A
C2755      C2756   1.408       .  A
C2755      N2762   1.433   1_455  S
C2756      C2757   1.402       .  A
C2756      H2761   1.084   1_454  S
C2757      C2758   1.411       .  A
C2758      N2759   1.430       .  S
N2759      H2763   1.045       .  S
N2759      H2764   1.045       .  S
N2762      H2765   1.044       .  S
N2762      H2766   1.044   1_655  S
C2767      C2768   1.408       .  A
C2767      C2772   1.417       .  A
C2767      H2774   1.081       .  S
C2768      C2769   1.422   1_556  A
C2769      C2770   1.413   1_554  A
C2769      N2776   1.439   1_565  S
C2770      C2771   1.409       .  A
C2770      H2775   1.083   1_556  S
C2771      C2772   1.416       .  A
C2772      N2773   1.432       .  S
N2773      H2777   1.046       .  S
N2773      H2778   1.045       .  S
N2776      H2779   1.043       .  S
N2776      H2780   1.045       .  S
C2781      C2782   1.402   1_545  A
C2781      C2786   1.405       .  A
C2781      H2788   1.084       .  S
C2782      C2783   1.420       .  A
C2783      C2784   1.418       .  A
C2783      N2790   1.437       .  S
C2784      C2785   1.413       .  A
C2784      H2789   1.083       .  S
C2785      C2786   1.426   1_565  A
C2786      N2787   1.432       .  S
N2787      H2791   1.044       .  S
N2787      H2792   1.045       .  S
N2790      H2793   1.043       .  S
N2790      H2794   1.046       .  S
C2795      C2796   1.413       .  A
C2795      C2800   1.422       .  A
C2795      H2802   1.083       .  S
C2796      C2797   1.419   1_655  A
C2797      C2798   1.406       .  A
C2797      N2804   1.432       .  S
C2798      C2799   1.401   1_455  A
C2798      H2803   1.084       .  S
C2799      C2800   1.422       .  A
C2800      N2801   1.437       .  S
N2801      H2805   1.045       .  S
N2801      H2806   1.044       .  S
N2804      H2807   1.046       .  S
N2804      H2808   1.045       .  S
