geometry optimzed in LAMMPS
_audit_creation_date              2020-11-30 
_audit_creation_method            'lammps2cif' 
_symmetry_space_group_name_H-M    'P1' 
_symmetry_Int_Tables_number       1 
_symmetry_cell_setting            triclinic 
loop_ 
_symmetry_equiv_pos_as_xyz 
  x,y,z 
_cell_length_a                    61.26984813 
_cell_length_b                    61.28364751575343 
_cell_length_c                    93.52468039731825 
_cell_angle_alpha                 90.03840127526358 
_cell_angle_beta                  90.06210365431697 
_cell_angle_gamma                 120.27138707420706 
loop_ 
_atom_site_label 
_atom_site_type_symbol 
_atom_site_fract_x 
_atom_site_fract_y 
_atom_site_fract_z 
_atom_site_charge 
N1          N  0.30318193  0.30897502  0.65228950    -0.26100
N2          N  0.31870688  0.32850676  0.64433819    -0.34000
C3          C  0.30539121  0.33663639  0.63698419     0.02200
C4          C  0.28009238  0.32151238  0.64041336     0.08200
C5          C  0.27938370  0.30419568  0.65020024    -0.04900
H6          H  0.31379092  0.35264905  0.62982629     0.08900
H7          H  0.26281485  0.28922955  0.65539253     0.10100
Cu8        Cu  0.35744270  0.34425196  0.64381214     0.44200
Cu9        Cu  0.31594415  0.29049649  0.66554704     0.42000
Cu10       Cu  0.38529924  0.31837069  0.66647390     0.43900
N11         N  0.39596075  0.35868125  0.64490216    -0.33500
N12         N  0.40653391  0.34927359  0.65330770    -0.27800
C13         C  0.43172257  0.36223827  0.65122373    -0.03900
C14         C  0.43700588  0.38067613  0.64109984     0.08300
C15         C  0.41399358  0.37783843  0.63725839     0.02100
H16         H  0.44502475  0.35805948  0.65636321     0.09800
H17         H  0.41049770  0.38839000  0.62920705     0.08900
N18         N  0.35971399  0.28698805  0.67818170    -0.35000
N19         N  0.33483524  0.27687101  0.67781984    -0.27200
C20         C  0.32422607  0.25680460  0.68664574    -0.02400
C21         C  0.34332219  0.25427244  0.69276642     0.06200
C22         C  0.36552511  0.27362662  0.68724210     0.04300
H23         H  0.30413394  0.24504047  0.68848822     0.09400
H24         H  0.38452291  0.27776601  0.68963199     0.08200
N25         N  0.94434276  0.27382536  0.68142098    -0.26100
N26         N  0.92865949  0.28277631  0.68101746    -0.34000
C27         C  0.90919341  0.26906809  0.68990169     0.02200
C28         C  0.91281673  0.25073420  0.69613009     0.08200
C29         C  0.93520267  0.25420734  0.69056979    -0.04900
H30         H  0.89365212  0.27235261  0.69175220     0.08900
H31         H  0.94430008  0.24343695  0.69304539     0.10100
Cu32       Cu  0.93398111  0.31355079  0.66880703     0.44200
Cu33       Cu  0.97788054  0.28864187  0.66990844     0.42000
Cu34       Cu  0.99221388  0.34458234  0.64993063     0.43900
N35         N  0.94460559  0.34532597  0.65613329    -0.33500
N36         N  0.96642563  0.35677276  0.64928650    -0.27800
C37         C  0.96813995  0.37622226  0.64173649    -0.03900
C38         C  0.94641671  0.37716650  0.64399701     0.08300
C39         C  0.93175814  0.35728666  0.65310411     0.02100
H40         H  0.98379022  0.38836678  0.63484784     0.09800
H41         H  0.91301454  0.35162265  0.65698941     0.08900
N42         N  0.01511123  0.32892673  0.65032152    -0.35000
N43         N  0.01019172  0.30837260  0.65748733    -0.27200
C44         C  0.02850734  0.30289142  0.65473519    -0.02400
C45         C  0.04548238  0.32073737  0.64526181     0.06200
C46         C  0.03643354  0.33702676  0.64281503     0.04300
H47         H  0.02898735  0.28669656  0.65894055     0.09400
H48         H  0.04442415  0.35341839  0.63592863     0.08200
N49         N  0.20514187  0.34163516  0.61375329    -0.26100
N50         N  0.22110799  0.35473983  0.60339660    -0.34000
C51         C  0.24299366  0.35525555  0.60557850     0.02200
C52         C  0.24083885  0.34178695  0.61781076     0.08200
C53         C  0.21656453  0.33334836  0.62279005    -0.04900
H54         H  0.25941200  0.36491294  0.59875629     0.08900
H55         H  0.20797241  0.32244883  0.63234940     0.10100
Cu56       Cu  0.21371553  0.37202047  0.58658645     0.44200
Cu57       Cu  0.16908787  0.33678610  0.61532908     0.42000
Cu58       Cu  0.15380713  0.36685820  0.58617551     0.43900
N59         N  0.20295398  0.38819512  0.57072070    -0.33500
N60         N  0.18045339  0.38617401  0.57056025    -0.27800
C61         C  0.17893057  0.39895922  0.55929005    -0.03900
C62         C  0.20162039  0.40946416  0.55208423     0.08300
C63         C  0.21645614  0.40230988  0.55953217     0.02100
H64         H  0.16264924  0.40065572  0.55665315     0.09800
H65         H  0.23564596  0.40715454  0.55710511     0.08900
N66         N  0.13078225  0.34918595  0.60352843    -0.35000
N67         N  0.13590645  0.33818297  0.61413497    -0.27200
C68         C  0.11738398  0.33030470  0.62397363    -0.02400
C69         C  0.09998770  0.33685021  0.61926240     0.06200
C70         C  0.10909148  0.34870025  0.60632226     0.04300
H71         H  0.11723572  0.32151341  0.63402545     0.09400
H72         H  0.10098028  0.35719252  0.59962163     0.08200
N73         N  0.99491611  0.69676602  0.64826875    -0.26100
N74         N  0.99984777  0.68167388  0.64057647    -0.34000
C75         C  0.01795493  0.69551034  0.63103811     0.02200
C76         C  0.02491754  0.72053555  0.63285229     0.08200
C77         C  0.00996269  0.72074955  0.64389219    -0.04900
H78         H  0.02554496  0.68788691  0.62334945     0.08900
H79         H  0.00970228  0.73694315  0.64829161     0.10100
Cu80       Cu  0.98176447  0.64297651  0.64321131     0.44200
Cu81       Cu  0.96717553  0.68338650  0.66386394     0.42000
Cu82       Cu  0.93086407  0.61448612  0.66867563     0.43900
N83         N  0.96092849  0.60450387  0.64677244    -0.33500
N84         N  0.94199201  0.59368386  0.65595009    -0.27800
C85         C  0.93147036  0.56838090  0.65488591    -0.03900
C86         C  0.94463877  0.56331605  0.64464351     0.08300
C87         C  0.96303543  0.58656774  0.63969018     0.02100
H88         H  0.91492758  0.55474759  0.66071372     0.09800
H89         H  0.97628973  0.59020213  0.63111831     0.08900
N90         N  0.92425907  0.64017336  0.67990317    -0.35000
N91         N  0.93751695  0.66499032  0.67813609    -0.27200
C92         C  0.92855028  0.67600565  0.68694992    -0.02400
C93         C  0.90877110  0.65729559  0.69461816     0.06200
C94         C  0.90647532  0.63482487  0.68993305     0.04300
H95         H  0.93592034  0.69615260  0.68769244     0.09400
H96         H  0.89292267  0.61599059  0.69354315     0.08200
N97         N  0.30240647  0.00859160  0.65001233    -0.26100
N98         N  0.31820898  0.00731924  0.64091246    -0.34000
C99         C  0.30515074  0.98856501  0.63156388     0.02200
C100        C  0.27985562  0.97726474  0.63488497     0.08200
C101        C  0.27864650  0.99040357  0.64667950    -0.04900
H102        H  0.31354532  0.98337337  0.62301267     0.08900
H103        H  0.26189692  0.98716723  0.65235015     0.10100
Cu104      Cu  0.35694820  0.02996272  0.64169049     0.44200
Cu105      Cu  0.31505495  0.03570317  0.66613904     0.42000
Cu106      Cu  0.38505920  0.07579294  0.66916408     0.43900
N107        N  0.39548112  0.05075145  0.64477022    -0.33500
N108        N  0.40627938  0.06765624  0.65507186    -0.27800
C109        C  0.43154004  0.07774095  0.65424734    -0.03900
C110        C  0.43654708  0.06638711  0.64292134     0.08300
C111        C  0.41336695  0.04952275  0.63712190     0.02100
H112        H  0.44516333  0.09245478  0.66118909     0.09800
H113        H  0.40973712  0.03746449  0.62790860     0.08900
N114        N  0.35898784  0.08044242  0.68108832    -0.35000
N115        N  0.33407104  0.06614471  0.68006820    -0.27200
C116        C  0.32329736  0.07502195  0.68913410    -0.02400
C117        C  0.34229226  0.09574545  0.69612230     0.06200
C118        C  0.36461847  0.09872917  0.69081364     0.04300
H119        H  0.30314441  0.06712413  0.69039823     0.09400
H120        H  0.38358269  0.11326146  0.69368079     0.08200
N121        N  0.11038189  0.82184965  0.61495174    -0.26100
N122        N  0.10509506  0.80653495  0.60389336    -0.34000
C123        C  0.08361197  0.78480310  0.60648298     0.02200
C124        C  0.07493605  0.78639083  0.61988191     0.08200
C125        C  0.09221356  0.81023432  0.62488098    -0.04900
H126        H  0.07560519  0.76873698  0.59932747     0.08900
H127        H  0.09243074  0.81795046  0.63532330     0.10100
Cu128      Cu  0.12838930  0.81394329  0.58645630     0.44200
Cu129      Cu  0.14381562  0.85616398  0.61679024     0.42000
Cu130      Cu  0.18868216  0.87065423  0.58768722     0.43900
N131        N  0.15530348  0.82381242  0.57071859    -0.33500
N132        N  0.17757912  0.84478659  0.57108564    -0.27800
C133        C  0.19116683  0.84520976  0.55968699    -0.03900
C134        C  0.17660942  0.82344406  0.55189017     0.08300
C135        C  0.15405560  0.81026884  0.55912404     0.02100
H136        H  0.21037440  0.85990045  0.55747856     0.09800
H137        H  0.13816798  0.79194422  0.55639202     0.08900
N138        N  0.19623676  0.89243832  0.60599173    -0.35000
N139        N  0.18003407  0.88738676  0.61654728    -0.27200
C140        C  0.19136520  0.90486322  0.62689398    -0.02400
C141        C  0.21587936  0.92161717  0.62268686     0.06200
C142        C  0.21826158  0.91316622  0.60934175     0.04300
H143        H  0.18256618  0.90503720  0.63688379     0.09400
H144        H  0.23475741  0.92120726  0.60253923     0.08200
N145        N  0.55853114  0.11064707  0.57748253    -0.35500
N146        N  0.58082210  0.09332169  0.59864909    -0.56000
N147        N  0.53924841  0.08040135  0.61829482    -0.35500
N148        N  0.51774703  0.09911418  0.59771595    -0.56000
C149        C  0.58232687  0.12074805  0.57236154     0.28100
C150        C  0.54871786  0.12427662  0.57199696     0.28100
C151        C  0.55598534  0.07925526  0.62721570     0.28100
C152        C  0.52150154  0.08127006  0.62646691     0.28100
C153        C  0.59629029  0.09687047  0.58751317     0.36700
C154        C  0.58638694  0.08128954  0.60884436     0.36700
C155        C  0.50881231  0.10460338  0.58589083     0.36700
C156        C  0.49810677  0.08776273  0.60688764     0.36700
C157        C  0.58749156  0.14066498  0.56327877    -0.20700
C158        C  0.56627867  0.14292943  0.56307419    -0.20700
C159        C  0.54858106  0.07898142  0.64126925    -0.20700
C160        C  0.52673163  0.08020434  0.64078939    -0.20700
C161        C  0.61155460  0.08678912  0.59055636    -0.21800
C162        C  0.60529656  0.07691407  0.60408180    -0.21800
C163        C  0.48335832  0.09652016  0.58748736    -0.21800
C164        C  0.47656334  0.08585741  0.60080687    -0.21800
C165        C  0.59941917  0.11237047  0.57564672    -0.17200
C166        C  0.52407195  0.11978984  0.57455964    -0.17200
C167        C  0.50012836  0.08165343  0.62117335    -0.17100
C168        C  0.57678505  0.07690732  0.62291135    -0.17100
H169        H  0.60485375  0.15258257  0.55754163     0.15800
H170        H  0.56415534  0.15688711  0.55712267     0.15800
H171        H  0.55781389  0.07777382  0.65086209     0.15800
H172        H  0.51588215  0.08018121  0.64992096     0.15800
H173        H  0.62634214  0.08740588  0.58394074     0.14000
H174        H  0.61427357  0.06830524  0.60992221     0.14000
H175        H  0.47115942  0.09876414  0.57999141     0.14000
H176        H  0.45806640  0.07822004  0.60560516     0.14000
H177        H  0.54882102  0.09416455  0.58346749     0.27300
H178        H  0.53843645  0.07787787  0.60727721     0.27300
N179        N  0.46629745  0.27531628  0.52415163    -0.26100
N180        N  0.46996346  0.26592499  0.53600447    -0.34000
C181        C  0.47710512  0.28302197  0.54651966     0.02200
C182        C  0.47817493  0.30455447  0.54114278     0.08200
C183        C  0.47115454  0.29897528  0.52685534    -0.04900
H184        H  0.48242252  0.28027876  0.55710350     0.08900
H185        H  0.47016903  0.31130426  0.51893771     0.10100
Cu186      Cu  0.46886180  0.23198090  0.53726216     0.44200
Cu187      Cu  0.45618132  0.25491461  0.50507912     0.42000
Cu188      Cu  0.45829272  0.19515421  0.50621144     0.43900
N189        N  0.47412833  0.20149702  0.53671173    -0.33500
N190        N  0.47071118  0.18774195  0.52518511    -0.27800
C191        C  0.47737675  0.17038741  0.52815044    -0.03900
C192        C  0.48546147  0.17355045  0.54228941     0.08300
C193        C  0.48308111  0.19351889  0.54730334     0.02100
H194        H  0.47663653  0.15677213  0.52051577     0.09800
H195        H  0.48816130  0.20231494  0.55772990     0.08900
N196        N  0.44560323  0.20720365  0.48909930    -0.35000
N197        N  0.44492949  0.22847749  0.48857816    -0.27200
C198        C  0.43482068  0.22948505  0.47598418    -0.02400
C199        C  0.42896853  0.20792902  0.46835479     0.06200
C200        C  0.43595063  0.19420855  0.47690712     0.04300
H201        H  0.43152159  0.24454110  0.47277040     0.09400
H202        H  0.43378240  0.17591579  0.47458933     0.08200
N203        N  0.55694356  0.44200827  0.57365771    -0.35500
N204        N  0.58304580  0.48442845  0.59332681    -0.56000
N205        N  0.54136277  0.46125976  0.61333169    -0.35500
N206        N  0.51611859  0.41798344  0.59430885    -0.56000
C207        C  0.58066980  0.45358843  0.56829827     0.28100
C208        C  0.54515954  0.41774549  0.56906059     0.28100
C209        C  0.55909684  0.47966634  0.62173234     0.28100
C210        C  0.52262575  0.44467887  0.62196427     0.28100
C211        C  0.59827290  0.49391346  0.58181069     0.36700
C212        C  0.59063140  0.50368187  0.60273754     0.36700
C213        C  0.50580104  0.40186145  0.58318221     0.36700
C214        C  0.49706234  0.41248915  0.60352835     0.36700
C215        C  0.58387263  0.43664012  0.56000278    -0.20700
C216        C  0.56149527  0.41398545  0.56053407    -0.20700
C217        C  0.55124044  0.47501306  0.63587406    -0.20700
C218        C  0.52817415  0.45294041  0.63601418    -0.20700
C219        C  0.61541401  0.51938550  0.58382416    -0.21800
C220        C  0.61062426  0.52556742  0.59710354    -0.21800
C221        C  0.48006334  0.38623087  0.58526465    -0.21800
C222        C  0.47452408  0.39291281  0.59817172    -0.21800
C223        C  0.59938097  0.47912806  0.57056106    -0.17200
C224        C  0.51981070  0.39920067  0.57202878    -0.17200
C225        C  0.50021713  0.42300044  0.61733495    -0.17100
C226        C  0.58148498  0.50110637  0.61685445    -0.17100
H227        H  0.60068490  0.44012008  0.55429364     0.15800
H228        H  0.55780168  0.39668532  0.55531193     0.15800
H229        H  0.56101410  0.48641639  0.64512394     0.15800
H230        H  0.51677659  0.44402858  0.64538521     0.15800
H231        H  0.63043663  0.53194324  0.57669557     0.14000
H232        H  0.62111663  0.54389362  0.60218873     0.14000
H233        H  0.46677636  0.37116521  0.57836840     0.14000
H234        H  0.45611245  0.38395838  0.60319134     0.14000
H235        H  0.54863303  0.45075575  0.57911928     0.27300
H236        H  0.54079744  0.46129454  0.60223263     0.27300
N237        N  0.72446101  0.53223753  0.52388020    -0.26100
N238        N  0.73048593  0.52133342  0.53407154    -0.34000
C239        C  0.71178425  0.51092626  0.54365256     0.02200
C240        C  0.69277422  0.51542483  0.53943592     0.08200
C241        C  0.70138564  0.52892923  0.52673762    -0.04900
H242        H  0.71211561  0.50068061  0.55297933     0.08900
H243        H  0.69185034  0.53615654  0.52021521     0.10100
Cu244      Cu  0.76381910  0.52108149  0.53499383     0.44200
Cu245      Cu  0.74932678  0.55097481  0.50714464     0.42000
Cu246      Cu  0.81014833  0.54981811  0.50800208     0.43900
N247        N  0.79756426  0.52160353  0.53560498    -0.33500
N248        N  0.81501517  0.53180260  0.52558912    -0.27800
C249        C  0.83457106  0.52866033  0.52923910    -0.03900
C250        C  0.82905974  0.51608489  0.54228001     0.08300
C251        C  0.80539129  0.51193288  0.54590025     0.02100
H252        H  0.85163002  0.53537809  0.52300214     0.09800
H253        H  0.79438687  0.50230308  0.55525898     0.08900
N254        N  0.79955721  0.56683329  0.49226592    -0.35000
N255        N  0.77814186  0.56730392  0.49202512    -0.27200
C256        C  0.77781336  0.57981218  0.48028275    -0.02400
C257        C  0.79990731  0.58747830  0.47283702     0.06200
C258        C  0.81329441  0.57904366  0.48066317     0.04300
H259        H  0.76253075  0.58297426  0.47737317     0.09400
H260        H  0.83162899  0.58151020  0.47812078     0.08200
N261        N  0.81431514  0.27219136  0.52993830    -0.26100
N262        N  0.79898007  0.26403244  0.54103326    -0.34000
C263        C  0.80679144  0.28247829  0.55081933     0.02200
C264        C  0.82823713  0.30359452  0.54570118     0.08200
C265        C  0.83244373  0.29635324  0.53235715    -0.04900
H266        H  0.79707234  0.28067386  0.56077713     0.08900
H267        H  0.84758198  0.30767861  0.52499165     0.10100
Cu268      Cu  0.76724012  0.22879222  0.54195386     0.44200
Cu269      Cu  0.80859664  0.24871893  0.51251612     0.42000
Cu270      Cu  0.75045061  0.18453823  0.51326599     0.43900
N271        N  0.73361032  0.19516987  0.54101503    -0.33500
N272        N  0.72665364  0.17858580  0.53050628    -0.27800
C273        C  0.70306104  0.15940153  0.53318951    -0.03900
C274        C  0.69503857  0.16431046  0.54607972     0.08300
C275        C  0.71497254  0.18721997  0.55060749     0.02100
H276        H  0.69262144  0.14318096  0.52629759     0.09800
H277        H  0.71583017  0.19786443  0.56002616     0.08900
N278        N  0.77874013  0.19734643  0.49783572    -0.35000
N279        N  0.79917873  0.22017007  0.49750159    -0.27200
C280        C  0.81309453  0.22178415  0.48599913    -0.02400
C281        C  0.80089308  0.19901281  0.47884705     0.06200
C282        C  0.77923933  0.18394125  0.48656049     0.04300
H283        H  0.83077926  0.23834342  0.48308212     0.09400
H284        H  0.76482961  0.16469519  0.48414865     0.08200
N285        N  0.88961856  0.44263281  0.57748973    -0.35500
N286        N  0.90612159  0.48397608  0.59802571    -0.56000
N287        N  0.92578948  0.46020279  0.61699790    -0.35500
N288        N  0.90708321  0.41783156  0.59722081    -0.56000
C289        C  0.87753809  0.45441294  0.57241719     0.28100
C290        C  0.87735708  0.41875065  0.57224908     0.28100
C291        C  0.92771134  0.47875264  0.62570936     0.28100
C292        C  0.92834685  0.44342622  0.62520219     0.28100
C293        C  0.89944061  0.49373539  0.58702589     0.36700
C294        C  0.91821583  0.50286320  0.60764670     0.36700
C295        C  0.90032017  0.40178375  0.58600409     0.36700
C296        C  0.91991650  0.41125421  0.60634452     0.36700
C297        C  0.85779655  0.43803647  0.56358996    -0.20700
C298        C  0.85764958  0.41554222  0.56351021    -0.20700
C299        C  0.93224799  0.47407044  0.63958915    -0.20700
C300        C  0.93263660  0.45177445  0.63927066    -0.20700
C301        C  0.90741735  0.51892670  0.58963300    -0.21800
C302        C  0.91922365  0.52469282  0.60269197    -0.21800
C303        C  0.90912978  0.38513068  0.58791935    -0.21800
C304        C  0.92151319  0.39109455  0.60080378    -0.21800
C305        C  0.88392176  0.47960014  0.57541157    -0.17200
C306        C  0.88361209  0.39984179  0.57500700    -0.17200
C307        C  0.92783047  0.42134116  0.62021989    -0.17100
C308        C  0.92643110  0.50020914  0.62134567    -0.17100
H309        H  0.84454064  0.44172271  0.55796846     0.15800
H310        H  0.84430334  0.39865540  0.55778946     0.15800
H311        H  0.93501200  0.48552894  0.64897620     0.15800
H312        H  0.93576331  0.44277034  0.64836564     0.15800
H313        H  0.90449317  0.53167406  0.58297635     0.14000
H314        H  0.92722153  0.54279845  0.60803338     0.14000
H315        H  0.90625311  0.36978128  0.58095621     0.14000
H316        H  0.93009050  0.38123658  0.60570774     0.14000
H317        H  0.90641573  0.45103652  0.58327237     0.27300
H318        H  0.92511742  0.46021189  0.60591303     0.27300
N319        N  0.72060376  0.05985826  0.68532709    -0.26100
N320        N  0.71322413  0.07665529  0.68387056    -0.34000
C321        C  0.72937075  0.09783581  0.69095950     0.02200
C322        C  0.74767792  0.09407116  0.69705887     0.08200
C323        C  0.74164911  0.06990490  0.69337773    -0.04900
H324        H  0.72768461  0.11454366  0.69173667     0.08900
H325        H  0.75161115  0.06021868  0.69641577     0.10100
Cu326      Cu  0.68150510  0.07030464  0.67261043     0.44200
Cu327      Cu  0.70216996  0.02408515  0.67641040     0.42000
Cu328      Cu  0.64585311  0.00863426  0.65666278     0.43900
N329        N  0.64887718  0.05876025  0.66088386    -0.33500
N330        N  0.63569242  0.03596658  0.65518831    -0.27800
C331        C  0.61622563  0.03448555  0.64775681    -0.03900
C332        C  0.61722119  0.05736816  0.64893211     0.08300
C333        C  0.63815866  0.07245992  0.65721607     0.02100
H334        H  0.60296151  0.01829038  0.64151880     0.09800
H335        H  0.64556367  0.09211277  0.65996385     0.08900
N336        N  0.66090982  0.98518394  0.65791539    -0.35000
N337        N  0.68153736  0.99066543  0.66520106    -0.27200
C338        C  0.68711842  0.97229920  0.66308826    -0.02400
C339        C  0.66924122  0.95453781  0.65393537     0.06200
C340        C  0.65283293  0.96329302  0.65092647     0.04300
H341        H  0.70354289  0.97239472  0.66742778     0.09400
H342        H  0.63659124  0.95488871  0.64390024     0.08200
N343        N  0.69196787  0.69472592  0.65485527    -0.26100
N344        N  0.67105525  0.67786705  0.64831882    -0.34000
C345        C  0.66288586  0.68963875  0.63964798     0.02200
C346        C  0.67916996  0.71526779  0.64073978     0.08200
C347        C  0.69751405  0.71802204  0.65053018    -0.04900
H348        H  0.64638910  0.68011838  0.63283889     0.08900
H349        H  0.71393090  0.73546241  0.65392800     0.10100
Cu350      Cu  0.65498161  0.63942532  0.65016951     0.44200
Cu351      Cu  0.71163762  0.68345745  0.66848438     0.42000
Cu352      Cu  0.68649181  0.61356586  0.66904820     0.43900
N353        N  0.64334959  0.60164411  0.64933201    -0.33500
N354        N  0.65517610  0.59157923  0.65599848    -0.27800
C355        C  0.64435408  0.56704905  0.65214834    -0.03900
C356        C  0.62485648  0.56179030  0.64268768     0.08300
C357        C  0.62481983  0.58409056  0.64112391     0.02100
H358        H  0.65070424  0.55431150  0.65558857     0.09800
H359        H  0.61291810  0.58762941  0.63408264     0.08900
N360        N  0.71733935  0.64044675  0.68095657    -0.35000
N361        N  0.72634792  0.66519786  0.68076212    -0.27200
C362        C  0.74645514  0.67645062  0.68961736    -0.02400
C363        C  0.75021827  0.65799450  0.69560535     0.06200
C364        C  0.73148532  0.63546235  0.68993608     0.04300
H365        H  0.75756302  0.69659730  0.69149483     0.09400
H366        H  0.72840959  0.61677627  0.69210377     0.08200
N367        N  0.67637760  0.80812768  0.62242302    -0.26100
N368        N  0.66635230  0.79155519  0.61187560    -0.34000
C369        C  0.66982713  0.77197761  0.61455121     0.02200
C370        C  0.68263884  0.77633604  0.62743004     0.08200
C371        C  0.68665365  0.79953680  0.63204008    -0.04900
H372        H  0.66288373  0.75552328  0.60774309     0.08900
H373        H  0.69524476  0.80886926  0.64202273     0.10100
Cu374      Cu  0.64674545  0.79480987  0.59462022     0.44200
Cu375      Cu  0.67280335  0.84002214  0.62416059     0.42000
Cu376      Cu  0.63439169  0.84552694  0.59603463     0.43900
N377        N  0.62796352  0.80187421  0.57837340    -0.33500
N378        N  0.62350550  0.82083061  0.57891109    -0.27800
C379        C  0.61147760  0.82093067  0.56688674    -0.03900
C380        C  0.60822573  0.80104237  0.55842918     0.08300
C381        C  0.61883973  0.78930943  0.56597419     0.02100
H382        H  0.60562785  0.83450076  0.56448955     0.09800
H383        H  0.61996547  0.77297160  0.56269442     0.08900
N384        N  0.64741745  0.86843407  0.61394167    -0.35000
N385        N  0.66184516  0.86709202  0.62403172    -0.27200
C386        C  0.66683826  0.88501428  0.63393220    -0.02400
C387        C  0.65483109  0.89806913  0.62981591     0.06200
C388        C  0.64272294  0.88700950  0.61716688     0.04300
H389        H  0.67804113  0.88799733  0.64345586     0.09400
H390        H  0.63136042  0.89216791  0.61070646     0.08200
O391        O  0.86850393  0.68640567  0.72875599    -0.71800
O392        O  0.82308931  0.69002129  0.75883977    -0.72800
O393        O  0.87003127  0.69013036  0.75919278    -0.61400
O394        O  0.82174121  0.68645645  0.72849119    -0.69800
O395        O  0.80072142  0.64458004  0.73005664    -0.69400
O396        O  0.84869384  0.64823688  0.76062893    -0.60600
O397        O  0.80210801  0.64811628  0.76023953    -0.73100
O398        O  0.84721455  0.64453286  0.73040003    -0.71900
Cu399      Cu  0.84663243  0.68977732  0.74377630     1.04600
Cu400      Cu  0.82399720  0.64495485  0.74540053     1.04300
C401        C  0.86490802  0.66481382  0.72490598     0.94400
C402        C  0.80520536  0.66948919  0.76405550     0.93500
C403        C  0.86697880  0.66962956  0.76460132     0.85700
C404        C  0.80351903  0.66492479  0.72459363     0.92000
O405        O  0.81892869  0.13630981  0.72919041    -0.71800
O406        O  0.86672272  0.17910387  0.76019090    -0.72800
O407        O  0.81846616  0.13403533  0.75945305    -0.61400
O408        O  0.86710277  0.18126327  0.72985372    -0.69800
O409        O  0.84822517  0.20411854  0.73070702    -0.69400
O410        O  0.79972233  0.15701526  0.76024828    -0.60600
O411        O  0.84781577  0.20196033  0.76092864    -0.73100
O412        O  0.80020554  0.15933886  0.73005872    -0.71900
Cu413      Cu  0.84348957  0.15686797  0.74464606     1.04600
Cu414      Cu  0.82335882  0.18142716  0.74551913     1.04300
C415        C  0.80196518  0.14103200  0.72489132     0.94400
C416        C  0.86479050  0.19735207  0.76533119     0.93500
C417        C  0.80132846  0.13800684  0.76436605     0.85700
C418        C  0.86526216  0.20011467  0.72568183     0.92000
O419        O  0.31783140  0.18697657  0.72780081    -0.71800
O420        O  0.31711109  0.14322380  0.76004963    -0.72800
O421        O  0.31781537  0.18994979  0.75805183    -0.61400
O422        O  0.31717539  0.14021575  0.72968727    -0.69800
O423        O  0.35918099  0.16105020  0.72983258    -0.69400
O424        O  0.35982693  0.21054140  0.75806259    -0.60600
O425        O  0.35912076  0.16402258  0.76006687    -0.73100
O426        O  0.35983842  0.20762054  0.72792711    -0.71900
Cu427      Cu  0.31596690  0.16432048  0.74389604     1.04600
Cu428      Cu  0.36094147  0.18650037  0.74397647     1.04300
C429        C  0.33899285  0.20432620  0.72294030     0.94400
C430        C  0.33805419  0.14679373  0.76506907     0.93500
C431        C  0.33899079  0.20812785  0.76239517     0.85700
C432        C  0.33814579  0.14292158  0.72532472     0.92000
N433        N  0.30447961  0.31905291  0.82849113    -0.26100
N434        N  0.32011804  0.33987143  0.83553213    -0.34000
C435        C  0.30672746  0.34727117  0.84339972     0.02200
C436        C  0.28131064  0.33026131  0.84125472     0.08200
C437        C  0.28054123  0.31270417  0.83164135    -0.04900
H438        H  0.31505851  0.36366428  0.85031317     0.08900
H439        H  0.26387016  0.29610417  0.82762131     0.10100
Cu440      Cu  0.35893650  0.35666324  0.83517252     0.44200
Cu441      Cu  0.31721154  0.29995431  0.81586202     0.42000
Cu442      Cu  0.38608848  0.32466022  0.81731191     0.43900
N443        N  0.39713719  0.36933628  0.83556672    -0.33500
N444        N  0.40736817  0.35734057  0.82925746    -0.27800
C445        C  0.43222748  0.36935647  0.83237440    -0.03900
C446        C  0.43766833  0.38988729  0.84094403     0.08300
C447        C  0.41506784  0.38926797  0.84282882     0.02100
H448        H  0.44512305  0.36312821  0.82905625     0.09800
H449        H  0.41165628  0.40171545  0.84946257     0.08900
N450        N  0.36050657  0.29380060  0.80518528    -0.35000
N451        N  0.33585463  0.28507370  0.80459316    -0.27200
C452        C  0.32517122  0.26526897  0.79557378    -0.02400
C453        C  0.34397431  0.26145022  0.79030371     0.06200
C454        C  0.36609700  0.27974180  0.79654862     0.04300
H455        H  0.30521369  0.25448569  0.79308021     0.09400
H456        H  0.38487734  0.28267393  0.79494308     0.08200
N457        N  0.94366214  0.27073811  0.80959086    -0.26100
N458        N  0.92706603  0.27852079  0.81032876    -0.34000
C459        C  0.90740781  0.26403063  0.80172535     0.02200
C460        C  0.91188338  0.24640521  0.79534718     0.08200
C461        C  0.93494627  0.25107861  0.80048183    -0.04900
H462        H  0.89124287  0.26641535  0.80010459     0.08900
H463        H  0.94481113  0.24117316  0.79771512     0.10100
Cu464      Cu  0.93145933  0.30892644  0.82237712     0.44200
Cu465      Cu  0.97764722  0.28710674  0.82066632     0.42000
Cu466      Cu  0.98831053  0.34029982  0.84254493     0.43900
N467        N  0.94117016  0.34091120  0.83451583    -0.33500
N468        N  0.96241820  0.35254507  0.84193387    -0.27800
C469        C  0.96362407  0.37239327  0.84881740    -0.03900
C470        C  0.94214654  0.37329951  0.84551586     0.08300
C471        C  0.92819618  0.35305110  0.83648680     0.02100
H472        H  0.97876988  0.38489820  0.85592059     0.09800
H473        H  0.90984582  0.34729226  0.83190858     0.08900
N474        N  0.01266915  0.32619630  0.84164515    -0.35000
N475        N  0.00929011  0.30708782  0.83351335    -0.27200
C476        C  0.02870965  0.30299523  0.83558409    -0.02400
C477        C  0.04484944  0.32018844  0.84562595     0.06200
C478        C  0.03410143  0.33465031  0.84916047     0.04300
H479        H  0.03059699  0.28821080  0.83044247     0.09400
H480        H  0.04119604  0.35020759  0.85664990     0.08200
N481        N  0.20576615  0.34105858  0.87372570    -0.26100
N482        N  0.22142033  0.35141561  0.88464373    -0.34000
C483        C  0.24362816  0.35324405  0.88147007     0.02200
C484        C  0.24190771  0.34344723  0.86797163     0.08200
C485        C  0.21762683  0.33583501  0.86331770    -0.04900
H486        H  0.25998194  0.36144855  0.88843209     0.08900
H487        H  0.20942018  0.32787740  0.85301658     0.10100
Cu488      Cu  0.21290659  0.36361296  0.90328572     0.44200
Cu489      Cu  0.16984655  0.33649748  0.87314768     0.42000
Cu490      Cu  0.15286378  0.35938862  0.90500804     0.43900
N491        N  0.20115557  0.37528258  0.92089092    -0.33500
N492        N  0.17884319  0.37365940  0.92160684    -0.27800
C493        C  0.17710024  0.38354045  0.93411300    -0.03900
C494        C  0.19940728  0.39167887  0.94151674     0.08300
C495        C  0.21426825  0.38622741  0.93288748     0.02100
H496        H  0.16106175  0.38518765  0.93739738     0.09800
H497        H  0.23335190  0.39036990  0.93499926     0.08900
N498        N  0.13090179  0.34621510  0.88667334    -0.35000
N499        N  0.13671171  0.33764164  0.87515978    -0.27200
C500        C  0.11860331  0.33146185  0.86519943    -0.02400
C501        C  0.10066665  0.33651568  0.87076509     0.06200
C502        C  0.10910470  0.34584283  0.88432814     0.04300
H503        H  0.11893154  0.32453773  0.85460668     0.09400
H504        H  0.10021566  0.35228443  0.89189767     0.08200
N505        N  0.54672661  0.11283256  0.90508144    -0.35500
N506        N  0.57483793  0.09790787  0.88617930    -0.56000
N507        N  0.53280206  0.07542888  0.86643146    -0.35500
N508        N  0.50527825  0.09161571  0.88490718    -0.56000
C509        C  0.57041797  0.12683470  0.91035359     0.28100
C510        C  0.53336814  0.12360737  0.90963999     0.28100
C511        C  0.55101077  0.07541321  0.85826522     0.28100
C512        C  0.51377554  0.07182699  0.85761199     0.28100
C513        C  0.59055236  0.10592775  0.89756094     0.36700
C514        C  0.58338844  0.08653629  0.87725400     0.36700
C515        C  0.49424249  0.09734879  0.89563201     0.36700
C516        C  0.48673500  0.07716998  0.87554726     0.36700
C517        C  0.57201749  0.14643274  0.91857776    -0.20700
C518        C  0.54867051  0.14446410  0.91807520    -0.20700
C519        C  0.54323854  0.07123230  0.84409694    -0.20700
C520        C  0.51972073  0.06897723  0.84368125    -0.20700
C521        C  0.60914818  0.09956395  0.89589691    -0.21800
C522        C  0.60459433  0.08724393  0.88302675    -0.21800
C523        C  0.46852334  0.08631064  0.89317067    -0.21800
C524        C  0.46374213  0.07350869  0.88043846    -0.21800
C525        C  0.59032516  0.12179358  0.90841166    -0.17200
C526        C  0.50756608  0.11472317  0.90670260    -0.17200
C527        C  0.49077399  0.06988266  0.86192446    -0.17100
C528        C  0.57385067  0.07788376  0.86338834    -0.17100
H529        H  0.58832521  0.16074539  0.92432433     0.15800
H530        H  0.54360400  0.15704178  0.92330985     0.15800
H531        H  0.55341250  0.06987095  0.83500818     0.15800
H532        H  0.50826586  0.06552223  0.83420445     0.15800
H533        H  0.62486087  0.10408701  0.90297706     0.14000
H534        H  0.61603543  0.08029633  0.87827454     0.14000
H535        H  0.45479253  0.08793898  0.89965889     0.14000
H536        H  0.44555197  0.06333952  0.87516840     0.14000
H537        H  0.53951626  0.09558284  0.89982829     0.27300
H538        H  0.53219732  0.07527113  0.87753548     0.27300
N539        N  0.80358040  0.28082854  0.96000061    -0.26100
N540        N  0.78954792  0.27270528  0.94834740    -0.34000
C541        C  0.79951028  0.29048593  0.93820109     0.02200
C542        C  0.82111427  0.31111600  0.94359133     0.08200
C543        C  0.82310169  0.30431367  0.95752621    -0.04900
H544        H  0.79107613  0.28856902  0.92777849     0.08900
H545        H  0.83757162  0.31553034  0.96529146     0.10100
Cu546      Cu  0.75652071  0.23867862  0.94673388     0.44200
Cu547      Cu  0.79393286  0.25860600  0.97837905     0.42000
Cu548      Cu  0.73157716  0.19873025  0.97699889     0.43900
N549        N  0.72134175  0.20687899  0.94687231    -0.33500
N550        N  0.71151426  0.19200789  0.95806812    -0.27800
C551        C  0.68773966  0.17387088  0.95486158    -0.03900
C552        C  0.68242280  0.17773517  0.94094897     0.08300
C553        C  0.70431648  0.19882835  0.93626984     0.02100
H554        H  0.67515555  0.15941197  0.96224299     0.09800
H555        H  0.70775081  0.20802020  0.92598575     0.08900
N556        N  0.75686643  0.21014848  0.99396459    -0.35000
N557        N  0.77904397  0.23137592  0.99449600    -0.27200
C558        C  0.79050724  0.23204210  0.00691141    -0.02400
C559        C  0.77483190  0.21031902  0.01443632     0.06200
C560        C  0.75372413  0.19686148  0.00599664     0.04300
H561        H  0.80900934  0.24709355  0.01012097     0.09400
H562        H  0.73740110  0.17861473  0.00831371     0.08200
N563        N  0.72051670  0.05604752  0.80487783    -0.26100
N564        N  0.71383980  0.07342489  0.80623062    -0.34000
C565        C  0.72986468  0.09399819  0.79866264     0.02200
C566        C  0.74741410  0.08941506  0.79226203     0.08200
C567        C  0.74102127  0.06523593  0.79636054    -0.04900
H568        H  0.72853957  0.11088924  0.79771371     0.08900
H569        H  0.75035252  0.05496021  0.79325850     0.10100
Cu570      Cu  0.68269028  0.06889716  0.81759805     0.44200
Cu571      Cu  0.70126423  0.02037197  0.81444443     0.42000
Cu572      Cu  0.64344188  0.00772184  0.83206545     0.43900
N573        N  0.64936913  0.05900073  0.82842156    -0.33500
N574        N  0.63462450  0.03597350  0.83345328    -0.27800
C575        C  0.61493629  0.03507789  0.84030705    -0.03900
C576        C  0.61739205  0.05865759  0.83951582     0.08300
C577        C  0.63943188  0.07350051  0.83197531     0.02100
H578        H  0.60047894  0.01873612  0.84592379     0.09800
H579        H  0.64799645  0.09343915  0.82963027     0.08900
N580        N  0.65701096  0.98302324  0.83214960    -0.35000
N581        N  0.67805704  0.98722397  0.82581232    -0.27200
C582        C  0.68166419  0.96769218  0.82867117    -0.02400
C583        C  0.66207615  0.95064399  0.83731612     0.06200
C584        C  0.64679227  0.96101569  0.83922944     0.04300
H585        H  0.69769849  0.96631761  0.82505823     0.09400
H586        H  0.62963202  0.95343789  0.84545035     0.08200
N587        N  0.69044363  0.70472611  0.82739680    -0.26100
N588        N  0.67065047  0.68900255  0.83511057    -0.34000
C589        C  0.66250435  0.70209466  0.84265056     0.02200
C590        C  0.67788071  0.72746245  0.83960419     0.08200
C591        C  0.69529212  0.72849024  0.82976456    -0.04900
H592        H  0.64656220  0.69361878  0.84986805     0.08900
H593        H  0.71074444  0.74527252  0.82502510     0.10100
Cu594      Cu  0.65580834  0.65054879  0.83583800     0.44200
Cu595      Cu  0.71007743  0.69207120  0.81496815     0.42000
Cu596      Cu  0.68650347  0.62309972  0.81702875     0.43900
N597        N  0.64389400  0.61266424  0.83686885    -0.33500
N598        N  0.65515999  0.60212424  0.83008455    -0.27800
C599        C  0.64355932  0.57744872  0.83362315    -0.03900
C600        C  0.62413413  0.57255632  0.84298974     0.08300
C601        C  0.62492696  0.59521486  0.84485380     0.02100
H602        H  0.64923090  0.56429617  0.82995237     0.09800
H603        H  0.61309722  0.59896753  0.85181537     0.08900
N604        N  0.71772485  0.64900391  0.80516175    -0.35000
N605        N  0.72617420  0.67360242  0.80444278    -0.27200
C606        C  0.74681217  0.68449024  0.79603128    -0.02400
C607        C  0.75150635  0.66591989  0.79128876     0.06200
C608        C  0.73277684  0.64369928  0.79720762     0.04300
H609        H  0.75761745  0.70445641  0.79361183     0.09400
H610        H  0.73030656  0.62503946  0.79589969     0.08200
N611        N  0.65375179  0.79727802  0.86865804    -0.26100
N612        N  0.64766767  0.78384293  0.88056071    -0.34000
C613        C  0.65172137  0.76444231  0.87876636     0.02200
C614        C  0.66084118  0.76567101  0.86512698     0.08200
C615        C  0.66195274  0.78676059  0.85896645    -0.04900
H616        H  0.64739813  0.74990195  0.88664853     0.08900
H617        H  0.66714521  0.79330452  0.84808664     0.10100
Cu618      Cu  0.63175308  0.79050809  0.89834604     0.44200
Cu619      Cu  0.64849029  0.82792298  0.86590590     0.42000
Cu620      Cu  0.61498825  0.83852893  0.89488888     0.43900
N621        N  0.61343989  0.79859543  0.91427114    -0.33500
N622        N  0.60691507  0.81604233  0.91296767    -0.27800
C623        C  0.59536890  0.81671421  0.92506551    -0.03900
C624        C  0.59463396  0.79879728  0.93431538     0.08300
C625        C  0.60623104  0.78766908  0.92720023     0.02100
H626        H  0.58829167  0.82944392  0.92701007     0.09800
H627        H  0.60933747  0.77284677  0.93112742     0.08900
N628        N  0.62809492  0.86066685  0.87658297    -0.35000
N629        N  0.64073052  0.85721368  0.86621634    -0.27200
C630        C  0.64778104  0.87574867  0.85648007    -0.02400
C631        C  0.63910730  0.89158225  0.86094451     0.06200
C632        C  0.62661232  0.88135443  0.87365077     0.04300
H633        H  0.65849552  0.87753332  0.84692982     0.09400
H634        H  0.61761120  0.88878084  0.88046496     0.08200
N635        N  0.88999136  0.44790615  0.90923762    -0.35500
N636        N  0.90483451  0.48587384  0.88696678    -0.56000
N637        N  0.92074576  0.45812062  0.86846062    -0.35500
N638        N  0.90408932  0.41927314  0.89002188    -0.56000
C639        C  0.87898487  0.46095848  0.91397332     0.28100
C640        C  0.87728854  0.42461314  0.91519200     0.28100
C641        C  0.92113094  0.47497609  0.85899007     0.28100
C642        C  0.92181970  0.43983330  0.86091531     0.28100
C643        C  0.90030938  0.49787677  0.89769605     0.36700
C644        C  0.91589905  0.50296919  0.87635827     0.36700
C645        C  0.89829877  0.40504290  0.90196067     0.36700
C646        C  0.91607284  0.41121954  0.88120975     0.36700
C647        C  0.85962238  0.44607362  0.92336024    -0.20700
C648        C  0.85846763  0.42312441  0.92407352    -0.20700
C649        C  0.92293776  0.46755775  0.84522529    -0.20700
C650        C  0.92340471  0.44536751  0.84644491    -0.20700
C651        C  0.90873420  0.52274125  0.89395492    -0.21800
C652        C  0.91857024  0.52597496  0.88044447    -0.21800
C653        C  0.90682190  0.38803010  0.90080610    -0.21800
C654        C  0.91815338  0.39197840  0.88767509    -0.21800
C655        C  0.88574100  0.48584875  0.90996684    -0.17200
C656        C  0.88235573  0.40474182  0.91293514    -0.17200
C657        C  0.92255549  0.41901288  0.86687314    -0.17100
C658        C  0.92132609  0.49750868  0.86255886    -0.17100
H659        H  0.84715603  0.45097319  0.92887259     0.15800
H660        H  0.84499727  0.40706722  0.93029083     0.15800
H661        H  0.92401187  0.47722573  0.83534060     0.15800
H662        H  0.92483310  0.43459801  0.83768806     0.15800
H663        H  0.90719394  0.53684248  0.90013676     0.14000
H664        H  0.92620047  0.54314620  0.87420988     0.14000
H665        H  0.90439624  0.37373326  0.90845907     0.14000
H666        H  0.92620926  0.38130214  0.88321406     0.14000
H667        H  0.90627612  0.45505456  0.90305858     0.27300
H668        H  0.92238867  0.46039736  0.87948644     0.27300
N669        N  0.72587068  0.54108647  0.95803757    -0.26100
N670        N  0.73225435  0.53097376  0.94755667    -0.34000
C671        C  0.71303826  0.51966719  0.93828927     0.02200
C672        C  0.69342509  0.52274806  0.94308580     0.08200
C673        C  0.70213770  0.53632244  0.95573378    -0.04900
H674        H  0.71344199  0.50991867  0.92873754     0.08900
H675        H  0.69228227  0.54280987  0.96253924     0.10100
Cu676      Cu  0.76662718  0.53278349  0.94594292     0.44200
Cu677      Cu  0.75075227  0.56105558  0.97445818     0.42000
Cu678      Cu  0.81253128  0.56260229  0.97316633     0.43900
N679        N  0.80067340  0.53369597  0.94574551    -0.33500
N680        N  0.81793744  0.54432271  0.95586273    -0.27800
C681        C  0.83736119  0.54062469  0.95279292    -0.03900
C682        C  0.83198125  0.52714748  0.94003548     0.08300
C683        C  0.80849560  0.52313581  0.93597144     0.02100
H684        H  0.85411083  0.54729192  0.95933275     0.09800
H685        H  0.79746153  0.51275259  0.92675443     0.08900
N686        N  0.80100190  0.57807023  0.98934424    -0.35000
N687        N  0.77913231  0.57760533  0.98970555    -0.27200
C688        C  0.77765526  0.58827504  0.00196080    -0.02400
C689        C  0.79949611  0.59570597  0.00963408     0.06200
C690        C  0.81392105  0.58905879  0.00140929     0.04300
H691        H  0.76156203  0.58987795  0.00518417     0.09400
H692        H  0.83218066  0.59146364  0.00411695     0.08200
N693        N  0.55644933  0.44981503  0.90976971    -0.35500
N694        N  0.58209845  0.49301316  0.89067153    -0.56000
N695        N  0.54014963  0.47034658  0.87062676    -0.35500
N696        N  0.51544579  0.42617643  0.88898402    -0.56000
C697        C  0.58017196  0.46128513  0.91519281     0.28100
C698        C  0.54465276  0.42551319  0.91423987     0.28100
C699        C  0.55750305  0.48956498  0.86253253     0.28100
C700        C  0.52146683  0.45414888  0.86179083     0.28100
C701        C  0.59771008  0.50198868  0.90208837     0.36700
C702        C  0.58940251  0.51267963  0.88163016     0.36700
C703        C  0.50550003  0.40903889  0.89964849     0.36700
C704        C  0.49657762  0.42009016  0.87948442     0.36700
C705        C  0.58326246  0.44423133  0.92345003    -0.20700
C706        C  0.56084090  0.42167816  0.92286626    -0.20700
C707        C  0.54940754  0.48587573  0.84841597    -0.20700
C708        C  0.52663026  0.46353981  0.84795368    -0.20700
C709        C  0.61479871  0.52754486  0.90038936    -0.21800
C710        C  0.60959791  0.53430762  0.88740583    -0.21800
C711        C  0.48021336  0.39207094  0.89696136    -0.21800
C712        C  0.47454605  0.39905522  0.88419304    -0.21800
C713        C  0.59906205  0.48676467  0.91297938    -0.17200
C714        C  0.51957072  0.40675140  0.91091142    -0.17200
C715        C  0.49953044  0.43162261  0.86599852    -0.17100
C716        C  0.57986601  0.51078821  0.86765631    -0.17100
H717        H  0.60003592  0.44753370  0.92915806     0.15800
H718        H  0.55705356  0.40432706  0.92804652     0.15800
H719        H  0.55887055  0.49804533  0.83938589     0.15800
H720        H  0.51520457  0.45515984  0.83849750     0.15800
H721        H  0.63001467  0.53981327  0.90753052     0.14000
H722        H  0.61994957  0.55286163  0.88259805     0.14000
H723        H  0.46736344  0.37594441  0.90335661     0.14000
H724        H  0.45642627  0.38934090  0.87882092     0.14000
H725        H  0.54817604  0.45855455  0.90427378     0.27300
H726        H  0.53986580  0.46951203  0.88171249     0.27300
N727        N  0.46433888  0.28031414  0.95649802    -0.26100
N728        N  0.46986181  0.27163905  0.94497198    -0.34000
C729        C  0.47931365  0.28967152  0.93493330     0.02200
C730        C  0.47983785  0.31102108  0.94028372     0.08200
C731        C  0.47015987  0.30433248  0.95406114    -0.04900
H732        H  0.48570050  0.28730182  0.92459076     0.08900
H733        H  0.46754503  0.31596473  0.96177502     0.10100
Cu734      Cu  0.46542617  0.23612957  0.94335394     0.44200
Cu735      Cu  0.44945134  0.25823620  0.97472679     0.42000
Cu736      Cu  0.44339844  0.19473481  0.97346412     0.43900
N737        N  0.46335684  0.20154885  0.94349550    -0.33500
N738        N  0.45590740  0.18618097  0.95460053    -0.27800
C739        C  0.45854600  0.16615092  0.95139902    -0.03900
C740        C  0.46799288  0.16912789  0.93755897     0.08300
C741        C  0.47074314  0.19184986  0.93297060     0.02100
H742        H  0.45418651  0.15076316  0.95866407     0.09800
H743        H  0.47852931  0.20130371  0.92292229     0.08900
N744        N  0.43152460  0.20853698  0.99044781    -0.35000
N745        N  0.43385390  0.23124883  0.99086348    -0.27200
C746        C  0.42373397  0.23363086  0.00312289    -0.02400
C747        C  0.41460547  0.21146994  0.01074834     0.06200
C748        C  0.41980327  0.19595432  0.00246593     0.04300
H749        H  0.42275321  0.25016501  0.00613681     0.09400
H750        H  0.41511501  0.17681172  0.00488419     0.08200
N751        N  0.01054748  0.69246282  0.83115673    -0.26100
N752        N  0.01403064  0.67481227  0.83698235    -0.34000
C753        C  0.03436113  0.68561845  0.84552820     0.02200
C754        C  0.04433038  0.71136396  0.84512888     0.08200
C755        C  0.02886454  0.71521496  0.83586109    -0.04900
H756        H  0.04087492  0.67535547  0.85197151     0.08900
H757        H  0.03013714  0.73298967  0.83319130     0.10100
Cu758      Cu  0.99003056  0.63669481  0.83457567     0.44200
Cu759      Cu  0.97944181  0.68369275  0.81824142     0.42000
Cu760      Cu  0.93202866  0.61524450  0.81630441     0.43900
N761        N  0.96288578  0.59918247  0.83341632    -0.33500
N762        N  0.94093669  0.59076955  0.82689848    -0.27800
C763        C  0.92675943  0.56563300  0.82906373    -0.03900
C764        C  0.94077903  0.55821297  0.83721794     0.08300
C765        C  0.96342001  0.57990834  0.83986259     0.02100
H766        H  0.90745045  0.55390470  0.82547385     0.09800
H767        H  0.97871719  0.58179919  0.84654150     0.08900
N768        N  0.92868188  0.64382511  0.80623021    -0.35000
N769        N  0.94563197  0.66828019  0.80679808    -0.27200
C770        C  0.93735730  0.68101419  0.79884074    -0.02400
C771        C  0.91418651  0.66376057  0.79307531     0.06200
C772        C  0.90927220  0.64045748  0.79792249     0.04300
H773        H  0.94755708  0.70127184  0.79730063     0.09400
H774        H  0.89288947  0.62230432  0.79547948     0.08200
N775        N  0.29684697  0.00089250  0.83189185    -0.26100
N776        N  0.31164185  0.99392056  0.83822420    -0.34000
C777        C  0.29754535  0.97350926  0.84630387     0.02200
C778        C  0.27253300  0.96712159  0.84496699     0.08200
C779        C  0.27270492  0.98474267  0.83564486    -0.04900
H780        H  0.30504905  0.96385738  0.85248816     0.08900
H781        H  0.25657438  0.98597194  0.83203922     0.10100
Cu782      Cu  0.35026191  0.01186394  0.83569650     0.44200
Cu783      Cu  0.31112578  0.03292690  0.81920966     0.42000
Cu784      Cu  0.38056096  0.07020308  0.81663162     0.43900
N785        N  0.38885008  0.03301525  0.83311150    -0.33500
N786        N  0.40029207  0.05483524  0.82627207    -0.27800
C787        C  0.42541503  0.06547475  0.82811369    -0.03900
C788        C  0.42976067  0.04940712  0.83642543     0.08300
C789        C  0.40625638  0.02910329  0.83945041     0.02100
H790        H  0.43925734  0.08428072  0.82460626     0.09800
H791        H  0.40198410  0.01368412  0.84668476     0.08900
N792        N  0.35610483  0.08069175  0.80777579    -0.35000
N793        N  0.33113732  0.06712700  0.80854741    -0.27200
C794        C  0.32120659  0.07874228  0.80101447    -0.02400
C795        C  0.34083698  0.10057052  0.79532028     0.06200
C796        C  0.36266577  0.10129459  0.79975076     0.04300
H797        H  0.30119299  0.07141346  0.79946077     0.09400
H798        H  0.38186704  0.11525887  0.79695168     0.08200
N799        N  0.13190819  0.80612250  0.86957070    -0.26100
N800        N  0.12629017  0.78809041  0.87908679    -0.34000
C801        C  0.10539923  0.76698093  0.87473814     0.02200
C802        C  0.09754622  0.77205682  0.86188836     0.08200
C803        C  0.11466380  0.79705035  0.85900623    -0.04900
H804        H  0.09673919  0.74928855  0.88050858     0.08900
H805        H  0.11503878  0.80768291  0.84968595     0.10100
Cu806      Cu  0.14734008  0.79237790  0.89741585     0.44200
Cu807      Cu  0.16356109  0.84170966  0.87050751     0.42000
Cu808      Cu  0.20485967  0.85237490  0.90027615     0.43900
N809        N  0.17224210  0.80208976  0.91452747    -0.33500
N810        N  0.19340163  0.82415946  0.91545637    -0.27800
C811        C  0.20556322  0.82489168  0.92757970    -0.03900
C812        C  0.19136754  0.80222619  0.93458096     0.08300
C813        C  0.17035440  0.78814788  0.92609139     0.02100
H814        H  0.22340042  0.84076266  0.93101549     0.09800
H815        H  0.15489879  0.76923333  0.92813009     0.08900
N816        N  0.21297426  0.87833492  0.88407975    -0.35000
N817        N  0.19776530  0.87463664  0.87317083    -0.27200
C818        C  0.20904595  0.89450990  0.86424903    -0.02400
C819        C  0.23252092  0.91147248  0.86988430     0.06200
C820        C  0.23435182  0.90060162  0.88241157     0.04300
H821        H  0.20117639  0.89587553  0.85415792     0.09400
H822        H  0.25042637  0.90795121  0.88956024     0.08200
N823        N  0.98898898  0.31088172  0.33562380    -0.26100
N824        N  0.98493717  0.32699149  0.34291762    -0.34000
C825        C  0.96589368  0.31414220  0.35213329     0.02200
C826        C  0.95745270  0.28873320  0.35057582     0.08200
C827        C  0.97246870  0.28725182  0.33998880    -0.04900
H828        H  0.95912692  0.32275159  0.35969339     0.08900
H829        H  0.97210463  0.27045218  0.33608991     0.10100
Cu830      Cu  0.00647422  0.36579141  0.34112089     0.44200
Cu831      Cu  0.01807431  0.32202171  0.32093777     0.42000
Cu832      Cu  0.05987355  0.38992312  0.31771415     0.43900
N833        N  0.03260250  0.40377995  0.33916595    -0.33500
N834        N  0.05243000  0.41270399  0.33061839    -0.27800
C835        C  0.06671905  0.43782821  0.33248376    -0.03900
C836        C  0.05511466  0.44484989  0.34261964     0.08300
C837        C  0.03366560  0.42294892  0.34670922     0.02100
H838        H  0.08457068  0.44984310  0.32721782     0.09800
H839        H  0.02033235  0.42092115  0.35491568     0.08900
N840        N  0.06458220  0.36351158  0.30657043    -0.35000
N841        N  0.04952345  0.33877579  0.30771610    -0.27200
C842        C  0.05855141  0.32714701  0.29943230    -0.02400
C843        C  0.08020282  0.34552758  0.29285200     0.06200
C844        C  0.08353221  0.36830603  0.29755362     0.04300
H845        H  0.05020001  0.30688728  0.29847578     0.09400
H846        H  0.09880441  0.38698368  0.29484511     0.08200
N847        N  0.68962410  0.99398994  0.34668836    -0.26100
N848        N  0.67416499  0.99893444  0.35399004    -0.34000
C849        C  0.68773127  0.01816021  0.36301519     0.02200
C850        C  0.71295266  0.02592449  0.36119106     0.08200
C851        C  0.71356174  0.01019421  0.35075343    -0.04900
H852        H  0.67981325  0.02613672  0.37024416     0.08900
H853        H  0.73003014  0.01028097  0.34652336     0.10100
Cu854      Cu  0.63542428  0.97981825  0.35123877     0.44200
Cu855      Cu  0.67694351  0.96500738  0.33188104     0.42000
Cu856      Cu  0.60835578  0.92672611  0.32719925     0.43900
N857        N  0.59706255  0.95766400  0.34755164    -0.33500
N858        N  0.58697462  0.93789010  0.33889861    -0.27800
C859        C  0.56163956  0.92628634  0.33983470    -0.03900
C860        C  0.55571057  0.93961895  0.34942875     0.08300
C861        C  0.57848485  0.95926127  0.35418884     0.02100
H862        H  0.54862876  0.90879773  0.33449307     0.09800
H863        H  0.58139268  0.97284387  0.36245101     0.08900
N864        N  0.63431649  0.92051845  0.31648475    -0.35000
N865        N  0.65911106  0.93445096  0.31814930    -0.27200
C866        C  0.67042102  0.92571434  0.30942888    -0.02400
C867        C  0.65184888  0.90541597  0.30199174     0.06200
C868        C  0.62920660  0.90254221  0.30664862     0.04300
H869        H  0.69064366  0.93374078  0.30849000     0.09400
H870        H  0.61044239  0.88866102  0.30305855     0.08200
N871        N  0.87698185  0.18738842  0.37296173    -0.26100
N872        N  0.88236833  0.20382630  0.38345697    -0.34000
C873        C  0.90155265  0.22640242  0.37936783     0.02200
C874        C  0.90858374  0.22405197  0.36563808     0.08200
C875        C  0.89274258  0.19905557  0.36195955    -0.04900
H876        H  0.90958307  0.24323619  0.38592784     0.08900
H877        H  0.89218076  0.19016551  0.35185910     0.10100
Cu878      Cu  0.86317206  0.19569569  0.40275605     0.44200
Cu879      Cu  0.84712523  0.15051620  0.37340299     0.42000
Cu880      Cu  0.80910151  0.13368158  0.40548426     0.43900
N881        N  0.84025953  0.18316606  0.42071640    -0.33500
N882        N  0.82036135  0.16018386  0.42170025    -0.27800
C883        C  0.80868536  0.15794878  0.43423642    -0.03900
C884        C  0.82193833  0.18060363  0.44143898     0.08300
C885        C  0.84181051  0.19622872  0.43262505     0.02100
H886        H  0.79147509  0.14130917  0.43765069     0.09800
H887        H  0.85594293  0.21578002  0.43453707     0.08900
N888        N  0.79955504  0.11089151  0.38754385    -0.35000
N889        N  0.81350671  0.11671680  0.37586162    -0.27200
C890        C  0.80118684  0.09850403  0.36601408    -0.02400
C891        C  0.77830384  0.08054327  0.37174522     0.06200
C892        C  0.77796280  0.08896280  0.38543951     0.04300
H893        H  0.80788471  0.09889531  0.35526444     0.09400
H894        H  0.76296326  0.08021123  0.39323920     0.08200
N895        N  0.30276870  0.30352274  0.33267982    -0.26100
N896        N  0.32430248  0.31883502  0.33924192    -0.34000
C897        C  0.33291694  0.30507612  0.34570234     0.02200
C898        C  0.31600013  0.27975423  0.34309729     0.08200
C899        C  0.29717688  0.27949021  0.33475752    -0.04900
H900        H  0.35025813  0.31309065  0.35181597     0.08900
H901        H  0.28048273  0.26301813  0.33065001     0.10100
Cu902      Cu  0.34102457  0.35773823  0.33957254     0.44200
Cu903      Cu  0.28208036  0.31645728  0.32147483     0.42000
Cu904      Cu  0.30751637  0.38480518  0.32264588     0.43900
N905        N  0.35337932  0.39594217  0.33996970    -0.33500
N906        N  0.34096801  0.40601344  0.33395289    -0.27800
C907        C  0.35316959  0.43094552  0.33684017    -0.03900
C908        C  0.37421972  0.43661804  0.34496740     0.08300
C909        C  0.37378422  0.41410072  0.34681554     0.02100
H910        H  0.34681189  0.44377388  0.33359513     0.09800
H911        H  0.38682973  0.41095282  0.35305249     0.08900
N912        N  0.27509440  0.35958116  0.31149353    -0.35000
N913        N  0.26584223  0.33485064  0.31100411    -0.27200
C914        C  0.24522135  0.32435511  0.30252503    -0.02400
C915        C  0.24140363  0.34338980  0.29752433     0.06200
C916        C  0.26062917  0.36542816  0.30336207     0.04300
H917        H  0.23411271  0.30442782  0.30002259     0.09400
H918        H  0.26413176  0.38438828  0.30164840     0.08200
N919        N  0.27372578  0.94087124  0.30668643    -0.26100
N920        N  0.28210668  0.92471621  0.30628597    -0.34000
C921        C  0.26889431  0.90693999  0.29634715     0.02200
C922        C  0.25151436  0.91221495  0.29028145     0.08200
C923        C  0.25505188  0.93377761  0.29701700    -0.04900
H924        H  0.27133613  0.89101064  0.29399331     0.08900
H925        H  0.24433696  0.94320014  0.29535511     0.10100
Cu926      Cu  0.30997808  0.92605973  0.31972350     0.44200
Cu927      Cu  0.28559943  0.97056434  0.32114026     0.42000
Cu928      Cu  0.32616308  0.97009122  0.34835973     0.43900
N929        N  0.33718161  0.93211759  0.33507547    -0.33500
N930        N  0.34289411  0.94857914  0.34557643    -0.27800
C931        C  0.36071065  0.94859054  0.35393098    -0.03900
C932        C  0.36651386  0.93129853  0.34845669     0.08300
C933        C  0.35126684  0.92100550  0.33653894     0.02100
H934        H  0.36845847  0.95999647  0.36345591     0.09800
H935        H  0.35014831  0.90630575  0.32963131     0.08900
N936        N  0.31149836  0.99372109  0.34878374    -0.35000
N937        N  0.29744984  0.99511483  0.33850983    -0.27200
C938        C  0.29306941  0.01408883  0.34156919    -0.02400
C939        C  0.30493929  0.02485415  0.35444470     0.06200
C940        C  0.31624408  0.01137191  0.35868588     0.04300
H941        H  0.28235622  0.01971399  0.33486938     0.09400
H942        H  0.32795707  0.01478917  0.36804011     0.08200
N943        N  0.33159154  0.20053326  0.36764416    -0.26100
N944        N  0.34626328  0.21591727  0.37783712    -0.34000
C945        C  0.34896363  0.23884547  0.37593182     0.02200
C946        C  0.33528428  0.23800793  0.36402277     0.08200
C947        C  0.32446037  0.21340245  0.35896546    -0.04900
H948        H  0.35999859  0.25496227  0.38280651     0.08900
H949        H  0.31247582  0.20545391  0.34966995     0.10100
Cu950      Cu  0.36184570  0.20567174  0.39420890     0.44200
Cu951      Cu  0.32234224  0.16285485  0.36632548     0.42000
Cu952      Cu  0.34509591  0.14146018  0.39678333     0.43900
N953        N  0.37471221  0.19226776  0.41042175    -0.33500
N954        N  0.36833080  0.16829286  0.41158314    -0.27800
C955        C  0.37903280  0.16537570  0.42346111    -0.03900
C956        C  0.39271421  0.18873093  0.42995375     0.08300
C957        C  0.38959561  0.20532824  0.42147898     0.02100
H958        H  0.37667093  0.14759434  0.42717774     0.09800
H959        H  0.39711373  0.22529209  0.42334272     0.08900
N960        N  0.32486653  0.11914053  0.37957078    -0.35000
N961        N  0.31702181  0.12661015  0.36841338    -0.27200
C962        C  0.30674923  0.10764105  0.35878660    -0.02400
C963        C  0.30828397  0.08739069  0.36414036     0.06200
C964        C  0.31977419  0.09540405  0.37738129     0.04300
H965        H  0.29961910  0.10886193  0.34840920     0.09400
H966        H  0.32514389  0.08532725  0.38473824     0.08200
N967        N  0.43520829  0.88063739  0.41633207    -0.35500
N968        N  0.40897322  0.89567931  0.39597024    -0.56000
N969        N  0.45043293  0.91322524  0.37601262    -0.35500
N970        N  0.47571783  0.89621332  0.39557419    -0.56000
C971        C  0.41170650  0.86904787  0.42198811     0.28100
C972        C  0.44709640  0.86880576  0.42160855     0.28100
C973        C  0.43292207  0.91386895  0.36748502     0.28100
C974        C  0.46918297  0.91532079  0.36749610     0.28100
C975        C  0.39366042  0.89019348  0.40740410     0.36700
C976        C  0.40135872  0.90685052  0.38629626     0.36700
C977        C  0.48576031  0.88985766  0.40656115     0.36700
C978        C  0.49450317  0.90847710  0.38597567     0.36700
C979        C  0.40891854  0.85019995  0.43130229    -0.20700
C980        C  0.43126179  0.85006089  0.43106823    -0.20700
C981        C  0.44084065  0.91681640  0.35336895    -0.20700
C982        C  0.46380242  0.91781166  0.35338086    -0.20700
C983        C  0.37637155  0.89810615  0.40504533    -0.21800
C984        C  0.38120383  0.90860719  0.39165806    -0.21800
C985        C  0.51096045  0.89799985  0.40393150    -0.21800
C986        C  0.51655560  0.90990867  0.39092930    -0.21800
C987        C  0.39270341  0.87502086  0.41900908    -0.17200
C988        C  0.47189830  0.87454172  0.41821418    -0.17200
C989        C  0.49149265  0.91623324  0.37224983    -0.17100
C990        C  0.41077283  0.91328977  0.37223153    -0.17100
H991        H  0.39237448  0.83755454  0.43747545     0.15800
H992        H  0.43522877  0.83732543  0.43703816     0.15800
H993        H  0.43120746  0.91834065  0.34404778     0.15800
H994        H  0.47525204  0.92015781  0.34406569     0.15800
H995        H  0.36128719  0.89575875  0.41205375     0.14000
H996        H  0.37065802  0.91607717  0.38634758     0.14000
H997        H  0.52382704  0.89520442  0.41057210     0.14000
H998        H  0.53462965  0.91804424  0.38556727     0.14000
H999        H  0.44321773  0.89681379  0.41004425     0.27300
H1000       H  0.45099887  0.91414884  0.38709896     0.27300
N1001       N  0.54289359  0.72371363  0.46044255    -0.26100
N1002       N  0.53746488  0.73315432  0.44922202    -0.34000
C1003       C  0.53196602  0.71750797  0.43805182     0.02200
C1004       C  0.53377943  0.69690300  0.44238689     0.08200
C1005       C  0.54079845  0.70149722  0.45670255    -0.04900
H1006       H  0.52540655  0.72018279  0.42781985     0.08900
H1007       H  0.54333413  0.68925655  0.46399288     0.10100
Cu1008     Cu  0.53366663  0.76457209  0.45007271     0.44200
Cu1009     Cu  0.55093352  0.74154803  0.48026672     0.42000
Cu1010     Cu  0.54015485  0.79603585  0.48328397     0.43900
N1011       N  0.52533251  0.79289782  0.45254047    -0.33500
N1012       N  0.52715791  0.80460174  0.46471174    -0.27800
C1013       C  0.51952688  0.82149360  0.46251650    -0.03900
C1014       C  0.51248679  0.82016411  0.44823316     0.08300
C1015       C  0.51654078  0.80177522  0.44233523     0.02100
H1016       H  0.51892229  0.83357833  0.47074619     0.09800
H1017       H  0.51336907  0.79508006  0.43141683     0.08900
N1018       N  0.55577148  0.78421747  0.49920477    -0.35000
N1019       N  0.55960704  0.76482951  0.49811902    -0.27200
C1020       C  0.57089599  0.76336835  0.51014881    -0.02400
C1021       C  0.57428012  0.78266316  0.51915816     0.06200
C1022       C  0.56454611  0.79551716  0.51195572     0.04300
H1023       H  0.57656663  0.74951806  0.51206927     0.09400
H1024       H  0.56421554  0.81211059  0.51559585     0.08200
N1025       N  0.10912090  0.56809520  0.40877369    -0.35500
N1026       N  0.09273829  0.59122243  0.38755453    -0.56000
N1027       N  0.07921388  0.54932355  0.36806765    -0.35500
N1028       N  0.09723085  0.52712038  0.38861122    -0.56000
C1029       C  0.11932438  0.59185917  0.41399045     0.28100
C1030       C  0.12271620  0.55822309  0.41422408     0.28100
C1031       C  0.07746462  0.56568478  0.35914560     0.28100
C1032       C  0.07914518  0.53108314  0.35991126     0.28100
C1033       C  0.09584817  0.60628031  0.39885465     0.36700
C1034       C  0.08040610  0.59661069  0.37743893     0.36700
C1035       C  0.10356429  0.51838818  0.40017871     0.36700
C1036       C  0.08658129  0.50776853  0.37921518     0.36700
C1037       C  0.13934006  0.59697202  0.42301062    -0.20700
C1038       C  0.14147160  0.57572622  0.42316605    -0.20700
C1039       C  0.07597931  0.55760480  0.34512267    -0.20700
C1040       C  0.07698899  0.53568573  0.34561361    -0.20700
C1041       C  0.08528021  0.62116930  0.39595040    -0.21800
C1042       C  0.07563676  0.61516296  0.38234366    -0.21800
C1043       C  0.09696148  0.49339100  0.39816126    -0.21800
C1044       C  0.08610433  0.48660743  0.38486796    -0.21800
C1045       C  0.11077138  0.60888754  0.41097121    -0.17200
C1046       C  0.11834881  0.53366536  0.41159174    -0.17200
C1047       C  0.07942621  0.50968302  0.36516204    -0.17100
C1048       C  0.07534817  0.58659702  0.36344373    -0.17100
H1049       H  0.15143713  0.61433249  0.42873292     0.15800
H1050       H  0.15543282  0.57354277  0.42909506     0.15800
H1051       H  0.07397837  0.56636530  0.33554974     0.15800
H1052       H  0.07601864  0.52432078  0.33650485     0.15800
H1053       H  0.08515928  0.63538683  0.40276584     0.14000
H1054       H  0.06655666  0.62379232  0.37662566     0.14000
H1055       H  0.10033191  0.48155703  0.40534951     0.14000
H1056       H  0.07937047  0.46843954  0.37978634     0.14000
H1057       H  0.09255937  0.55845379  0.40281418     0.27300
H1058       H  0.07744180  0.54896934  0.37911644     0.27300
N1059       N  0.17148679  0.72837198  0.46257260    -0.26100
N1060       N  0.18583192  0.73861126  0.45122498    -0.34000
C1061       C  0.17719211  0.72221952  0.44035962     0.02200
C1062       C  0.15619891  0.70022068  0.44491178     0.08200
C1063       C  0.15306615  0.70474402  0.45914948    -0.04900
H1064       H  0.18666914  0.72571020  0.43016220     0.08900
H1065       H  0.13892002  0.69172654  0.46653626     0.10100
Cu1066     Cu  0.21931385  0.77208492  0.45116688     0.44200
Cu1067     Cu  0.18011779  0.74816532  0.48182351     0.42000
Cu1068     Cu  0.24504892  0.80544163  0.48298417     0.43900
N1069       N  0.25658327  0.79921335  0.45300466    -0.33500
N1070       N  0.26683022  0.81158183  0.46494779    -0.27800
C1071       C  0.29179736  0.82687162  0.46289347    -0.03900
C1072       C  0.29743723  0.82374434  0.44890861     0.08300
C1073       C  0.27448482  0.80596592  0.44303483     0.02100
H1074       H  0.30473970  0.83913851  0.47102045     0.09800
H1075       H  0.27078142  0.79807465  0.43237736     0.08900
N1076       N  0.21720753  0.79572511  0.49823608    -0.35000
N1077       N  0.19425201  0.77547100  0.49792959    -0.27200
C1078       C  0.18108501  0.77638912  0.50919017    -0.02400
C1079       C  0.19647867  0.79811852  0.51680454     0.06200
C1080       C  0.21915737  0.80994848  0.50964453     0.04300
H1081       H  0.16154951  0.76261545  0.51141653     0.09400
H1082       H  0.23566659  0.82789568  0.51227835     0.08200
N1083       N  0.45104968  0.56356843  0.40877224    -0.35500
N1084       N  0.42197766  0.52020455  0.39021108    -0.56000
N1085       N  0.46115314  0.54038886  0.36912240    -0.35500
N1086       N  0.49008727  0.58425547  0.38727446    -0.56000
C1087       C  0.42739876  0.55432943  0.41393707     0.28100
C1088       C  0.46458559  0.58810108  0.41275121     0.28100
C1089       C  0.44205823  0.52190179  0.36146587     0.28100
C1090       C  0.47836842  0.55662924  0.35972121     0.28100
C1091       C  0.40776244  0.51249618  0.40214589     0.36700
C1092       C  0.41349274  0.49968786  0.38171400     0.43300
C1093       C  0.50253584  0.60020440  0.39818234     0.36700
C1094       C  0.50762367  0.58815596  0.37733114     0.36700
C1095       C  0.42593224  0.57314958  0.42136518    -0.20700
C1096       C  0.44947072  0.59448497  0.42065009    -0.20700
C1097       C  0.44730642  0.52624904  0.34698820    -0.20700
C1098       C  0.47030006  0.54826857  0.34588026    -0.20700
C1099       C  0.39041786  0.48683782  0.40137553    -0.21800
C1100       C  0.39404689  0.47869152  0.38839164    -0.21800
C1101       C  0.52818118  0.61405032  0.39529298    -0.21800
C1102       C  0.53141776  0.60647686  0.38202397    -0.21800
C1103       C  0.40742815  0.52914460  0.41240940    -0.17200
C1104       C  0.49042221  0.60453876  0.40971961    -0.17200
C1105       C  0.50188289  0.57760515  0.36348339    -0.17100
C1106       C  0.42090101  0.50061148  0.36737900    -0.17100
H1107       H  0.40959512  0.57173249  0.42669108     0.15800
H1108       H  0.45475348  0.61269101  0.42527236     0.15800
H1109       H  0.43587743  0.51466743  0.33816785     0.15800
H1110       H  0.48011125  0.55693612  0.33603326     0.15800
H1111       H  0.37591552  0.47547774  0.40907982     0.14000
H1112       H  0.38293931  0.45976724  0.38411155     0.14000
H1113       H  0.54285884  0.62867967  0.40182927     0.14000
H1114       H  0.54913050  0.61410840  0.37631369     0.14000
H1115       H  0.45817161  0.55315534  0.40390600     0.27300
H1116       H  0.46373836  0.54035408  0.38011661     0.27300
N1117       N  0.28421841  0.48702143  0.45863711    -0.26100
N1118       N  0.27646379  0.49358711  0.44712495    -0.34000
C1119       C  0.29401749  0.50074278  0.43686851     0.02200
C1120       C  0.31400285  0.49869386  0.44218285     0.08200
C1121       C  0.30712006  0.48991216  0.45605294    -0.04900
H1122       H  0.29264484  0.50783684  0.42652121     0.08900
H1123       H  0.31798960  0.48616866  0.46376475     0.10100
Cu1124     Cu  0.24362506  0.49479381  0.44647051     0.44200
Cu1125     Cu  0.26330316  0.47598479  0.47730470     0.42000
Cu1126     Cu  0.20802502  0.48408943  0.47928638     0.43900
N1127       N  0.21229200  0.49849950  0.44833657    -0.33500
N1128       N  0.19934783  0.49513515  0.46021106    -0.27800
C1129       C  0.18025276  0.49938372  0.45746052    -0.03900
C1130       C  0.18131143  0.50571733  0.44312163     0.08300
C1131       C  0.20195945  0.50495455  0.43775387     0.02100
H1132       H  0.16666174  0.49784353  0.46534748     0.09800
H1133       H  0.20919522  0.50871645  0.42696004     0.08900
N1134       N  0.21988632  0.46981357  0.49570851    -0.35000
N1135       N  0.23966949  0.46662353  0.49485015    -0.27200
C1136       C  0.24107885  0.45530722  0.50682927    -0.02400
C1137       C  0.22133568  0.45127509  0.51558679     0.06200
C1138       C  0.20820290  0.46059945  0.50828936     0.04300
H1139       H  0.25495529  0.44967469  0.50877516     0.09400
H1140       H  0.19093229  0.45987587  0.51159805     0.08200
N1141       N  0.69666501  0.69818596  0.34153710    -0.26100
N1142       N  0.68013521  0.67658253  0.34755362    -0.34000
C1143       C  0.69202776  0.66977012  0.35704684     0.02200
C1144       C  0.71733603  0.68780512  0.35696996     0.08200
C1145       C  0.71972125  0.70562476  0.34699214    -0.04900
H1146       H  0.68289404  0.65280588  0.36347974     0.08900
H1147       H  0.73676280  0.72280996  0.34401066     0.10100
Cu1148     Cu  0.64223059  0.65706681  0.34275485     0.44200
Cu1149     Cu  0.68636810  0.71656050  0.32665078     0.42000
Cu1150     Cu  0.61805033  0.68584126  0.31951205     0.43900
N1151       N  0.60457445  0.64074572  0.33768835    -0.33500
N1152       N  0.59524915  0.65145300  0.32934202    -0.27800
C1153       C  0.56984911  0.63766920  0.32973923    -0.03900
C1154       C  0.56318697  0.61731066  0.33866048     0.08300
C1155       C  0.58554043  0.61987579  0.34356359     0.02100
H1156       H  0.55731397  0.64307382  0.32477695     0.09800
H1157       H  0.58782076  0.60865057  0.35171426     0.08900
N1158       N  0.64506419  0.71985579  0.31077353    -0.35000
N1159       N  0.66970529  0.73094818  0.31313157    -0.27200
C1160       C  0.68144667  0.75251250  0.30551636    -0.02400
C1161       C  0.66323795  0.75489382  0.29813298     0.06200
C1162       C  0.64049153  0.73400903  0.30166282     0.04300
H1163       H  0.70165549  0.76537422  0.30536173     0.09400
H1164       H  0.62194866  0.72930231  0.29783141     0.08200
N1165       N  0.05960204  0.73258184  0.30435847    -0.26100
N1166       N  0.07324350  0.72145845  0.30286676    -0.34000
C1167       C  0.09223028  0.73487131  0.29366615     0.02200
C1168       C  0.09049740  0.75533755  0.28915571     0.08200
C1169       C  0.06968328  0.75341992  0.29608546    -0.04900
H1170       H  0.10612100  0.72990626  0.29041433     0.08900
H1171       H  0.06227849  0.76607703  0.29511374     0.10100
Cu1172     Cu  0.06604769  0.68830454  0.31289349     0.44200
Cu1173     Cu  0.02763168  0.71902840  0.31740879     0.42000
Cu1174     Cu  0.00886794  0.65778839  0.33224255     0.43900
N1175       N  0.05452644  0.65513671  0.32413550    -0.33500
N1176       N  0.03273885  0.64353553  0.33098247    -0.27800
C1177       C  0.03130531  0.62431911  0.33860618    -0.03900
C1178       C  0.05322688  0.62377818  0.33639046     0.08300
C1179       C  0.06766971  0.64356058  0.32722819     0.02100
H1180       H  0.01638222  0.61299006  0.34609965     0.09800
H1181       H  0.08691235  0.65015665  0.32390174     0.08900
N1182       N  0.99111909  0.67774426  0.33686921    -0.35000
N1183       N  0.99749661  0.70022946  0.33166204    -0.27200
C1184       C  0.98286186  0.70820734  0.33789205    -0.02400
C1185       C  0.96691131  0.68980373  0.34753546     0.06200
C1186       C  0.97275534  0.67094046  0.34656714     0.04300
H1187       H  0.98440516  0.72633328  0.33595503     0.09400
H1188       H  0.96465101  0.65367943  0.35274373     0.08200
N1189       N  0.81626605  0.70043136  0.37686917    -0.26100
N1190       N  0.79975306  0.68708780  0.38693132    -0.34000
C1191       C  0.77789071  0.68644804  0.38420315     0.02200
C1192       C  0.78086815  0.70003812  0.37179487     0.08200
C1193       C  0.80545171  0.70877709  0.36752494    -0.04900
H1194       H  0.76094318  0.67614900  0.39054679     0.08900
H1195       H  0.81439574  0.71923901  0.35789145     0.10100
Cu1196     Cu  0.80687858  0.66834205  0.40308786     0.44200
Cu1197     Cu  0.85142823  0.70382080  0.37507800     0.42000
Cu1198     Cu  0.86569821  0.66802742  0.40037882     0.43900
N1199       N  0.81785743  0.64991210  0.41745768    -0.33500
N1200       N  0.83930022  0.64970671  0.41649152    -0.27800
C1201       C  0.84073046  0.63623900  0.42745321    -0.03900
C1202       C  0.81917794  0.62765965  0.43561937     0.08300
C1203       C  0.80508448  0.63660790  0.42903694     0.02100
H1204       H  0.85637204  0.63313188  0.42937630     0.09800
H1205       H  0.78699222  0.63384646  0.43244698     0.08900
N1206       N  0.88844776  0.68733847  0.38301112    -0.35000
N1207       N  0.88338399  0.70067401  0.37389506    -0.27200
C1208       C  0.90089355  0.70953645  0.36348290    -0.02400
C1209       C  0.91770586  0.70123689  0.36607725     0.06200
C1210       C  0.90930500  0.68730465  0.37861187     0.04300
H1211       H  0.90066674  0.72019195  0.35432126     0.09400
H1212       H  0.91723111  0.67724353  0.38397349     0.08200
O1213       O  0.12835037  0.31897142  0.23127040    -0.71800
O1214       O  0.17292338  0.31904888  0.26310487    -0.72800
O1215       O  0.12632662  0.31903283  0.26153126    -0.61400
O1216       O  0.17514852  0.31911217  0.23278413    -0.69800
O1217       O  0.19614713  0.36110758  0.23286193    -0.69400
O1218       O  0.14757511  0.36103864  0.26149758    -0.60600
O1219       O  0.19401600  0.36102787  0.26310013    -0.73100
O1220       O  0.14946944  0.36094408  0.23130354    -0.71900
Cu1221     Cu  0.14995184  0.31754941  0.24716585     1.04600
Cu1222     Cu  0.17255208  0.36248949  0.24718666     1.04300
C1223       C  0.13163611  0.33994584  0.22649446     0.94400
C1224       C  0.19059279  0.34006932  0.26798200     0.93500
C1225       C  0.12921050  0.34008618  0.26586492     0.85700
C1226       C  0.19344704  0.34018190  0.22844908     0.92000
O1227       O  0.68093474  0.86877196  0.26583374    -0.71800
O1228       O  0.68418018  0.82517071  0.23463532    -0.72800
O1229       O  0.68000888  0.86955010  0.23549161    -0.61400
O1230       O  0.68553751  0.82492191  0.26493906    -0.69800
O1231       O  0.64365815  0.80092654  0.26527517    -0.69400
O1232       O  0.63813503  0.84566388  0.23586456    -0.60600
O1233       O  0.64229081  0.80142206  0.23509420    -0.73100
O1234       O  0.63906785  0.84460239  0.26611767    -0.71900
Cu1235     Cu  0.68416245  0.84798626  0.25018858     1.04600
Cu1236     Cu  0.63932865  0.82232851  0.25058397     1.04300
C1237       C  0.65940484  0.86336532  0.27085393     0.94400
C1238       C  0.66364922  0.80620666  0.23016003     0.93500
C1239       C  0.65826981  0.86476445  0.23116493     0.85700
C1240       C  0.66542688  0.80589638  0.26967294     0.92000
N1241       N  0.98247012  0.30056795  0.16025738    -0.26100
N1242       N  0.97680252  0.31575002  0.15320406    -0.34000
C1243       C  0.95578621  0.30188196  0.14542248     0.02200
C1244       C  0.94757334  0.27657518  0.14767194     0.08200
C1245       C  0.96485745  0.27644164  0.15721747    -0.04900
H1246       H  0.94713169  0.30978681  0.13870011     0.08900
H1247       H  0.96485053  0.26001239  0.16144683     0.10100
Cu1248     Cu  0.99784244  0.35468880  0.15407749     0.44200
Cu1249     Cu  0.01473131  0.31417697  0.17316562     0.42000
Cu1250     Cu  0.05513908  0.38347952  0.17455888     0.43900
N1251       N  0.02252255  0.39318088  0.15456026    -0.33500
N1252       N  0.04389145  0.40405025  0.16190554    -0.27800
C1253       C  0.05672786  0.42890134  0.15876602    -0.03900
C1254       C  0.04253840  0.43364482  0.14908049     0.08300
C1255       C  0.02108965  0.41066926  0.14661448     0.02100
H1256       H  0.07543608  0.44220591  0.16270356     0.09800
H1257       H  0.00616226  0.40667154  0.13903907     0.08900
N1258       N  0.06296757  0.35835452  0.18523543    -0.35000
N1259       N  0.04864875  0.33340907  0.18470230    -0.27200
C1260       C  0.05966656  0.32317706  0.19260354    -0.02400
C1261       C  0.08184908  0.34258799  0.19830723     0.06200
C1262       C  0.08332721  0.36456239  0.19347341     0.04300
H1263       H  0.05206258  0.30311692  0.19409068     0.09400
H1264       H  0.09813598  0.38370405  0.19574910     0.08200
N1265       N  0.68866491  0.01299690  0.16767679    -0.26100
N1266       N  0.67246036  0.01786661  0.16113644    -0.34000
C1267       C  0.68519628  0.03900749  0.15334882     0.02200
C1268       C  0.71079799  0.04804701  0.15501334     0.08200
C1269       C  0.71232497  0.03123235  0.16429217    -0.04900
H1270       H  0.67630501  0.04672963  0.14667791     0.08900
H1271       H  0.72934094  0.03158041  0.16777704     0.10100
Cu1272     Cu  0.63375424  0.99449050  0.16159741     0.44200
Cu1273     Cu  0.67709138  0.98013940  0.17955729     0.42000
Cu1274     Cu  0.60862896  0.93426887  0.17821477     0.43900
N1275       N  0.59611904  0.96702763  0.16034443    -0.33500
N1276       N  0.58667017  0.94447386  0.16625355    -0.27800
C1277       C  0.56244101  0.93000875  0.16207763    -0.03900
C1278       C  0.55659659  0.94434860  0.15318754     0.08300
C1279       C  0.57828624  0.96761487  0.15227216     0.02100
H1280       H  0.55051181  0.91021880  0.16466626     0.09800
H1281       H  0.58139312  0.98328521  0.14554635     0.08900
N1282       N  0.63483090  0.92878184  0.18927970    -0.35000
N1283       N  0.65943450  0.94513200  0.18983190    -0.27200
C1284       C  0.67047430  0.93550815  0.19817730    -0.02400
C1285       C  0.65191739  0.91214880  0.20302536     0.06200
C1286       C  0.62962254  0.90844880  0.19722971     0.04300
H1287       H  0.69043885  0.94496817  0.20066403     0.09400
H1288       H  0.61090976  0.89232926  0.19880825     0.08200
N1289       N  0.85512349  0.19969594  0.11881742    -0.26100
N1290       N  0.85997347  0.21430053  0.10747101    -0.34000
C1291       C  0.88172275  0.23609681  0.10957061     0.02200
C1292       C  0.89125489  0.23529571  0.12281558     0.08200
C1293       C  0.87392919  0.21188082  0.12842637    -0.04900
H1294       H  0.88971777  0.25171007  0.10211389     0.08900
H1295       H  0.87434255  0.20468048  0.13891791     0.10100
Cu1296     Cu  0.83645388  0.20518004  0.08984001     0.44200
Cu1297     Cu  0.82163282  0.16512752  0.12102643     0.42000
Cu1298     Cu  0.77606968  0.14897489  0.09162397     0.43900
N1299       N  0.81032584  0.19343181  0.07337129    -0.33500
N1300       N  0.78793753  0.17262712  0.07396763    -0.27800
C1301       C  0.77520528  0.17046943  0.06180700    -0.03900
C1302       C  0.79043255  0.19093466  0.05324800     0.08300
C1303       C  0.81250208  0.20511772  0.06084691     0.02100
H1304       H  0.75622713  0.15535159  0.05948139     0.09800
H1305       H  0.82880397  0.22277082  0.05761990     0.08900
N1306       N  0.76859757  0.12868363  0.11050514    -0.35000
N1307       N  0.78501153  0.13398479  0.12102446    -0.27200
C1308       C  0.77357536  0.11710545  0.13163580    -0.02400
C1309       C  0.74879905  0.10056308  0.12758524     0.06200
C1310       C  0.74636673  0.10852294  0.11418137     0.04300
H1311       H  0.78246704  0.11737183  0.14168175     0.09400
H1312       H  0.72952167  0.10039201  0.10760924     0.08200
N1313       N  0.30464643  0.30666085  0.16133862    -0.26100
N1314       N  0.32442190  0.32242011  0.15361332    -0.34000
C1315       C  0.33106394  0.30916973  0.14504119     0.02200
C1316       C  0.31467839  0.28370525  0.14743870     0.08200
C1317       C  0.29827909  0.28279425  0.15792731    -0.04900
H1318       H  0.34664055  0.31761640  0.13758234     0.08900
H1319       H  0.28249136  0.26603052  0.16246237     0.10100
Cu1320     Cu  0.34124010  0.36124898  0.15444689     0.44200
Cu1321     Cu  0.28671176  0.31906877  0.17529558     0.42000
Cu1322     Cu  0.31371322  0.38825338  0.17666859     0.43900
N1323       N  0.35529044  0.39966261  0.15586488    -0.33500
N1324       N  0.34525460  0.40991610  0.16403471    -0.27800
C1325       C  0.35811814  0.43514048  0.16209440    -0.03900
C1326       C  0.37712994  0.44076008  0.15231163     0.08300
C1327       C  0.37474355  0.41793328  0.14851866     0.02100
H1328       H  0.35353088  0.44823686  0.16711306     0.09800
H1329       H  0.38583308  0.41472212  0.14069875     0.08900
N1330       N  0.28164485  0.36211484  0.18766588    -0.35000
N1331       N  0.27190010  0.33729481  0.18721233    -0.27200
C1332       C  0.25100462  0.32624085  0.19540667    -0.02400
C1333       C  0.24757535  0.34499297  0.20122185     0.06200
C1334       C  0.26722647  0.36744460  0.19615213     0.04300
H1335       H  0.23917178  0.30607408  0.19693982     0.09400
H1336       H  0.27076170  0.38628165  0.19839114     0.08200
N1337       N  0.30622314  0.00944140  0.14734813    -0.26100
N1338       N  0.32645465  0.01273540  0.14039823    -0.34000
C1339       C  0.33450325  0.03249796  0.13152577     0.02200
C1340       C  0.31885811  0.04243767  0.13297013     0.08200
C1341       C  0.30103437  0.02739193  0.14310257    -0.04900
H1342       H  0.35072255  0.03923000  0.12455601     0.08900
H1343       H  0.28534339  0.02912058  0.14697274     0.10100
Cu1344     Cu  0.34291324  0.99079527  0.14289789     0.44200
Cu1345     Cu  0.28682602  0.98017894  0.16204596     0.42000
Cu1346     Cu  0.31359734  0.93848742  0.16635641     0.43900
N1347       N  0.35601579  0.96603753  0.14568485    -0.33500
N1348       N  0.34500340  0.94623605  0.15423709    -0.27800
C1349       C  0.35682274  0.93282404  0.15297127    -0.03900
C1350       C  0.37621638  0.94506169  0.14322958     0.08300
C1351       C  0.37515059  0.96591886  0.13877302     0.02100
H1352       H  0.35119065  0.91514611  0.15835731     0.09800
H1353       H  0.38674126  0.97945575  0.13069757     0.08900
N1354       N  0.28240971  0.93446945  0.17736321    -0.35000
N1355       N  0.27247569  0.94918588  0.17589866    -0.27200
C1356       C  0.25223391  0.94060635  0.18459676    -0.02400
C1357       C  0.24952240  0.91964901  0.19177960     0.06200
C1358       C  0.26887758  0.91631540  0.18697275     0.04300
H1359       H  0.24034734  0.94890819  0.18553920     0.09400
H1360       H  0.27277311  0.90162976  0.19012922     0.08200
N1361       N  0.32451036  0.20726298  0.11517943    -0.26100
N1362       N  0.33561339  0.22267175  0.10426691    -0.34000
C1363       C  0.33762128  0.24510397  0.10718272     0.02200
C1364       C  0.32724987  0.24377067  0.12050026     0.08200
C1365       C  0.31909426  0.21947599  0.12528280    -0.04900
H1366       H  0.34636522  0.26136671  0.10019456     0.08900
H1367       H  0.31051812  0.21141403  0.13548018     0.10100
Cu1368     Cu  0.34858150  0.21325847  0.08600905     0.44200
Cu1369     Cu  0.31862971  0.17087588  0.11635139     0.42000
Cu1370     Cu  0.34225824  0.15183905  0.08603651     0.43900
N1371       N  0.36063418  0.19972353  0.06913317    -0.33500
N1372       N  0.35817453  0.17700696  0.06916623    -0.27800
C1373       C  0.36817178  0.17389533  0.05705597    -0.03900
C1374       C  0.37735307  0.19570147  0.04905607     0.08300
C1375       C  0.37230390  0.21170652  0.05697788     0.02100
H1376       H  0.36901930  0.15715285  0.05439601     0.09800
H1377       H  0.37705152  0.23074457  0.05422179     0.08900
N1378       N  0.32689386  0.13006909  0.10425841    -0.35000
N1379       N  0.31786900  0.13668473  0.11522342    -0.27200
C1380       C  0.30995458  0.11861593  0.12531846    -0.02400
C1381       C  0.31447025  0.09989081  0.12054370     0.06200
C1382       C  0.32514868  0.10776158  0.10711979     0.04300
H1383       H  0.30225085  0.11945384  0.13557350     0.09400
H1384       H  0.33146198  0.09820478  0.09996023     0.08200
N1385       N  0.18550067  0.71915673  0.02930847    -0.26100
N1386       N  0.20113383  0.72751459  0.04029959    -0.34000
C1387       C  0.19267018  0.70986586  0.05053484     0.02200
C1388       C  0.17042326  0.68911065  0.04587583     0.08200
C1389       C  0.16642853  0.69568546  0.03229323    -0.04900
H1390       H  0.20260160  0.71187894  0.06045197     0.08900
H1391       H  0.15103595  0.68425008  0.02506130     0.10100
Cu1392     Cu  0.23431558  0.76161578  0.04066626     0.44200
Cu1393     Cu  0.19307388  0.74066215  0.01086290     0.42000
Cu1394     Cu  0.25712416  0.79879301  0.00906986     0.43900
N1395       N  0.26907778  0.79393574  0.03951747    -0.33500
N1396       N  0.27837421  0.80761738  0.02783795    -0.27800
C1397       C  0.30216996  0.82634721  0.03059811    -0.03900
C1398       C  0.30789393  0.82425124  0.04475192     0.08300
C1399       C  0.28635006  0.80345349  0.04998795     0.02100
H1400       H  0.31436885  0.84030588  0.02287286     0.09800
H1401       H  0.28360384  0.79511879  0.06049610     0.08900
N1402       N  0.22982100  0.78597809  0.99293143    -0.35000
N1403       N  0.20699825  0.76560707  0.99372468    -0.27200
C1404       C  0.19413445  0.76374289  0.98168197    -0.02400
C1405       C  0.20953431  0.78373503  0.97293967     0.06200
C1406       C  0.23196713  0.79748371  0.98031776     0.04300
H1407       H  0.17487291  0.74905695  0.97955379     0.09400
H1408       H  0.24847261  0.81481779  0.97691027     0.08200
N1409       N  0.10501605  0.55219545  0.08015304    -0.35500
N1410       N  0.09112809  0.57969381  0.10001188    -0.56000
N1411       N  0.06904662  0.53704746  0.11951949    -0.35500
N1412       N  0.08445314  0.51028452  0.10031643    -0.56000
C1413       C  0.11886388  0.57602854  0.07507654     0.28100
C1414       C  0.11628337  0.53927671  0.07565729     0.28100
C1415       C  0.06949636  0.55516684  0.12799087     0.28100
C1416       C  0.06585105  0.51788067  0.12808959     0.28100
C1417       C  0.09824803  0.59547257  0.08867480     0.36700
C1418       C  0.07972587  0.58774204  0.10925895     0.36700
C1419       C  0.08988372  0.49970013  0.08924088     0.36700
C1420       C  0.07019473  0.49134566  0.10947584     0.36700
C1421       C  0.13881412  0.57816059  0.06701335    -0.20700
C1422       C  0.13727923  0.55500494  0.06744351    -0.20700
C1423       C  0.06601199  0.54722198  0.14211139    -0.20700
C1424       C  0.06373675  0.52366670  0.14217776    -0.20700
C1425       C  0.09121380  0.61349318  0.09068019    -0.21800
C1426       C  0.07956537  0.60866534  0.10373669    -0.21800
C1427       C  0.07866283  0.47383791  0.09122337    -0.21800
C1428       C  0.06617405  0.46852615  0.10406025    -0.21800
C1429       C  0.11381725  0.59582298  0.07745723    -0.17200
C1430       C  0.10779146  0.51354936  0.07854140    -0.17200
C1431       C  0.06368378  0.49494347  0.12339127    -0.17100
C1432       C  0.07163294  0.57799265  0.12314524    -0.17100
H1433       H  0.15326178  0.59479299  0.06159354     0.15800
H1434       H  0.15034106  0.55042092  0.06238170     0.15800
H1435       H  0.06512219  0.55730806  0.15139018     0.15800
H1436       H  0.06074451  0.51208353  0.15152399     0.15800
H1437       H  0.09479488  0.62898218  0.08365841     0.14000
H1438       H  0.07233130  0.61968082  0.10872226     0.14000
H1439       H  0.08016238  0.46038265  0.08439695     0.14000
H1440       H  0.05611471  0.45013742  0.10908315     0.14000
H1441       H  0.08776028  0.54468468  0.08542026     0.27300
H1442       H  0.06831179  0.53666991  0.10841580     0.27300
N1443       N  0.54245575  0.81567389  0.03416942    -0.26100
N1444       N  0.53991472  0.80321360  0.04612409    -0.34000
C1445       C  0.53199854  0.81259576  0.05653741     0.02200
C1446       C  0.52923706  0.83198930  0.05090847     0.08200
C1447       C  0.53623573  0.83348214  0.03665771    -0.04900
H1448       H  0.52706824  0.80461269  0.06715065     0.08900
H1449       H  0.53572292  0.84569842  0.02849565     0.10100
Cu1450     Cu  0.54279399  0.77125222  0.04723880     0.44200
Cu1451     Cu  0.55088762  0.80502929  0.01488915     0.42000
Cu1452     Cu  0.54946408  0.74415227  0.01458739     0.43900
N1453       N  0.53922264  0.73608576  0.04608842    -0.33500
N1454       N  0.54107937  0.72554956  0.03418602    -0.27800
C1455       C  0.53534470  0.70170213  0.03709147    -0.03900
C1456       C  0.52954440  0.69707722  0.05155065     0.08300
C1457       C  0.53229016  0.71944846  0.05682829     0.02100
H1458       H  0.53480035  0.68858923  0.02916222     0.09800
H1459       H  0.52839430  0.72320443  0.06753480     0.08900
N1460       N  0.55749954  0.76761894  0.99687909    -0.35000
N1461       N  0.55793937  0.78945420  0.99706457    -0.27200
C1462       C  0.56437100  0.80004391  0.98402438    -0.02400
C1463       C  0.56814418  0.78416520  0.97526501     0.06200
C1464       C  0.56369809  0.76382169  0.98367316     0.04300
H1465       H  0.56661070  0.81819639  0.98123770     0.09400
H1466       H  0.56530610  0.74769594  0.98052829     0.08200
N1467       N  0.44417250  0.88566802  0.08025643    -0.35500
N1468       N  0.41750563  0.90208252  0.09901797    -0.56000
N1469       N  0.45787805  0.92043785  0.11986793    -0.35500
N1470       N  0.48396030  0.90279337  0.10179274    -0.56000
C1471       C  0.42050709  0.87276223  0.07475341     0.28100
C1472       C  0.45644015  0.87356026  0.07609005     0.28100
C1473       C  0.43975424  0.92137543  0.12759376     0.28100
C1474       C  0.47515579  0.92129723  0.12918990     0.28100
C1475       C  0.40319045  0.89648818  0.08710448     0.36700
C1476       C  0.41080730  0.91554401  0.10753245     0.36700
C1477       C  0.49506197  0.89758187  0.09091024     0.36700
C1478       C  0.50221153  0.91565571  0.11162798     0.36700
C1479       C  0.41783525  0.85242025  0.06682294    -0.20700
C1480       C  0.44055317  0.85296855  0.06763238    -0.20700
C1481       C  0.44571466  0.92320622  0.14201855    -0.20700
C1482       C  0.46811867  0.92314123  0.14303101    -0.20700
C1483       C  0.38757336  0.90672926  0.08795461    -0.21800
C1484       C  0.39236581  0.91878219  0.10092520    -0.21800
C1485       C  0.52057335  0.90747723  0.09375077    -0.21800
C1486       C  0.52508148  0.91883239  0.10692483    -0.21800
C1487       C  0.40159047  0.87934892  0.07649696    -0.17200
C1488       C  0.48175539  0.88099753  0.07952330    -0.17200
C1489       C  0.49780714  0.92212398  0.12535853    -0.17100
C1490       C  0.41900243  0.92229253  0.12177763    -0.17100
H1491       H  0.40120839  0.83847814  0.06114086     0.15800
H1492       H  0.44475899  0.83952992  0.06269845     0.15800
H1493       H  0.43516207  0.92468849  0.15086755     0.15800
H1494       H  0.47820767  0.92457166  0.15281754     0.15800
H1495       H  0.37359299  0.90496133  0.08023578     0.14000
H1496       H  0.38281140  0.92816354  0.10518552     0.14000
H1497       H  0.53429920  0.90587527  0.08724248     0.14000
H1498       H  0.54296354  0.92777211  0.11256103     0.14000
H1499       H  0.45221035  0.90295581  0.08555978     0.27300
H1500       H  0.45983388  0.92212483  0.10881727     0.27300
N1501       N  0.44693225  0.56231534  0.08573049    -0.35500
N1502       N  0.48933824  0.58471107  0.10562847    -0.56000
N1503       N  0.46264870  0.54300159  0.12538677    -0.35500
N1504       N  0.41943268  0.52169455  0.10623017    -0.56000
C1505       C  0.46043823  0.58603559  0.08044245     0.28100
C1506       C  0.42297016  0.55244103  0.08084441     0.28100
C1507       C  0.48209193  0.55919168  0.13381247     0.28100
C1508       C  0.44492764  0.52506216  0.13395054     0.28100
C1509       C  0.50001277  0.60016574  0.09430251     0.36700
C1510       C  0.50823688  0.59011040  0.11498328     0.36700
C1511       C  0.40315711  0.51288600  0.09509541     0.36700
C1512       C  0.41171313  0.50225374  0.11548237     0.36700
C1513       C  0.44500720  0.59103822  0.07184302    -0.20700
C1514       C  0.42138350  0.56983211  0.07208435    -0.20700
C1515       C  0.47689918  0.55114290  0.14790425    -0.20700
C1516       C  0.45343041  0.52955120  0.14798703    -0.20700
C1517       C  0.52584633  0.61523335  0.09638062    -0.21800
C1518       C  0.53105499  0.60893675  0.10949947    -0.21800
C1519       C  0.38513396  0.48773231  0.09721550    -0.21800
C1520       C  0.39053382  0.48098263  0.11013803    -0.21800
C1521       C  0.48635637  0.60320516  0.08306485    -0.17200
C1522       C  0.40259816  0.52800638  0.08390028    -0.17200
C1523       C  0.42195764  0.50413221  0.12925930    -0.17100
C1524       C  0.50480237  0.58025207  0.12897343    -0.17100
H1525       H  0.45007884  0.60831201  0.06614214     0.15800
H1526       H  0.40484315  0.56764940  0.06658829     0.15800
H1527       H  0.48884656  0.55980402  0.15714973     0.15800
H1528       H  0.44378443  0.51838094  0.15730611     0.15800
H1529       H  0.53939622  0.62983834  0.08938155     0.14000
H1530       H  0.54944391  0.61770271  0.11457419     0.14000
H1531       H  0.36936622  0.47569353  0.09033026     0.14000
H1532       H  0.37971413  0.46267759  0.11517420     0.14000
H1533       H  0.45410960  0.55272991  0.09141944     0.27300
H1534       H  0.46258444  0.54268992  0.11428669     0.27300
N1535       N  0.18501265  0.46422956  0.03474587    -0.26100
N1536       N  0.19668426  0.46712808  0.04707903    -0.34000
C1537       C  0.18496522  0.47289780  0.05722487     0.02200
C1538       C  0.16491091  0.47386422  0.05102198     0.08200
C1539       C  0.16552521  0.46817518  0.03671255    -0.04900
H1540       H  0.19163801  0.47752539  0.06812445     0.08900
H1541       H  0.15324563  0.46761883  0.02823262     0.10100
Cu1542     Cu  0.23048727  0.46768444  0.04934994     0.44200
Cu1543     Cu  0.19726629  0.45655766  0.01580352     0.42000
Cu1544     Cu  0.26003530  0.46447534  0.01679597     0.43900
N1545       N  0.26778339  0.47669108  0.04820080    -0.33500
N1546       N  0.27891248  0.47645137  0.03617329    -0.27800
C1547       C  0.30343918  0.48477079  0.03881771    -0.03900
C1548       C  0.30807452  0.49054735  0.05326510     0.08300
C1549       C  0.28487587  0.48513194  0.05883523     0.02100
H1550       H  0.31678664  0.48646166  0.03072841     0.09800
H1551       H  0.28058381  0.48738199  0.06975535     0.08900
N1552       N  0.23553340  0.44907599  0.99957582    -0.35000
N1553       N  0.21270405  0.44636853  0.99924294    -0.27200
C1554       C  0.20103414  0.43452683  0.98708042    -0.02400
C1555       C  0.21728104  0.42956499  0.97946185     0.06200
C1556       C  0.23897980  0.43896455  0.98760945     0.04300
H1557       H  0.18189789  0.42932245  0.98420779     0.09400
H1558       H  0.25574392  0.43798875  0.98522283     0.08200
N1559       N  0.70185986  0.70740678  0.15642772    -0.26100
N1560       N  0.68660668  0.68716862  0.14883360    -0.34000
C1561       C  0.70033542  0.68195122  0.13977881     0.02200
C1562       C  0.72558892  0.69973404  0.14176917     0.08200
C1563       C  0.72588383  0.71553970  0.15245061    -0.04900
H1564       H  0.69240516  0.66592510  0.13259553     0.08900
H1565       H  0.74233726  0.73162377  0.15706262     0.10100
Cu1566     Cu  0.64791418  0.66667023  0.15134887     0.44200
Cu1567     Cu  0.68856927  0.72229332  0.17180729     0.42000
Cu1568     Cu  0.61939061  0.68836829  0.17671575     0.43900
N1569       N  0.60943760  0.64870766  0.15469152    -0.33500
N1570       N  0.59859721  0.65665231  0.16390458    -0.27800
C1571       C  0.57330984  0.64196203  0.16268502    -0.03900
C1572       C  0.56828032  0.62392764  0.15230502     0.08300
C1573       C  0.59151123  0.62880258  0.14741703     0.02100
H1574       H  0.55969660  0.64486667  0.16846997     0.09800
H1575       H  0.59515075  0.61937065  0.13874709     0.08900
N1576       N  0.64480537  0.72112214  0.18762153    -0.35000
N1577       N  0.66964358  0.73330415  0.18585535    -0.27200
C1578       C  0.68016389  0.75402576  0.19421880    -0.02400
C1579       C  0.66105867  0.75485195  0.20152226     0.06200
C1580       C  0.63893531  0.73380504  0.19716001     0.04300
H1581       H  0.70018150  0.76762952  0.19475792     0.09400
H1582       H  0.61993382  0.72828646  0.20049181     0.08200
N1583       N  0.05642171  0.73173477  0.17749129    -0.26100
N1584       N  0.07138228  0.72197327  0.17836760    -0.34000
C1585       C  0.09094448  0.73655300  0.18704840     0.02200
C1586       C  0.08814420  0.75631073  0.19181192     0.08200
C1587       C  0.06612119  0.75273691  0.18562332    -0.04900
H1588       H  0.10614670  0.73307126  0.18961915     0.08900
H1589       H  0.05787439  0.76463658  0.18679563     0.10100
Cu1590     Cu  0.06564294  0.68965268  0.16767932     0.44200
Cu1591     Cu  0.02421032  0.71744511  0.16471251     0.42000
Cu1592     Cu  0.01379538  0.66369789  0.14365068     0.43900
N1593       N  0.05574611  0.65748243  0.15554571    -0.33500
N1594       N  0.03626098  0.64792887  0.14669657    -0.27800
C1595       C  0.03465557  0.62780613  0.13995375    -0.03900
C1596       C  0.05399099  0.62446247  0.14485090     0.08300
C1597       C  0.06718055  0.64363313  0.15465340     0.02100
H1598       H  0.02090448  0.61693242  0.13177356     0.09800
H1599       H  0.08415653  0.64765042  0.16038774     0.08900
N1600       N  0.99325283  0.68169963  0.14129398    -0.35000
N1601       N  0.99623059  0.70100219  0.14910484    -0.27200
C1602       C  0.97962424  0.70787432  0.14458168    -0.02400
C1603       C  0.96583438  0.69211266  0.13333255     0.06200
C1604       C  0.97504607  0.67591276  0.13157764     0.04300
H1605       H  0.97810933  0.72340418  0.14895250     0.09400
H1606       H  0.96892384  0.66089747  0.12377146     0.08200
N1607       N  0.80253641  0.68706406  0.11242333    -0.26100
N1608       N  0.78713674  0.67445781  0.10172971    -0.34000
C1609       C  0.76488566  0.67328317  0.10381520     0.02200
C1610       C  0.76628005  0.68574741  0.11638259     0.08200
C1611       C  0.79043756  0.69427739  0.12160006    -0.04900
H1612       H  0.74866449  0.66357719  0.09682602     0.08900
H1613       H  0.79844783  0.70430026  0.13149926     0.10100
Cu1614     Cu  0.79619524  0.65841496  0.08494972     0.44200
Cu1615     Cu  0.83883478  0.69282502  0.11438792     0.42000
Cu1616     Cu  0.85829744  0.66668495  0.08542027     0.43900
N1617       N  0.80947394  0.64449432  0.06911078    -0.33500
N1618       N  0.83245726  0.64762335  0.06923754    -0.27800
C1619       C  0.83574651  0.63728498  0.05732840    -0.03900
C1620       C  0.81375451  0.62724840  0.04941088     0.08300
C1621       C  0.79747788  0.63209401  0.05712260     0.02100
H1622       H  0.85300902  0.63754999  0.05452926     0.09800
H1623       H  0.77856350  0.62748397  0.05411891     0.08900
N1624       N  0.88048489  0.68516696  0.10306006    -0.35000
N1625       N  0.87360269  0.69467747  0.11365903    -0.27200
C1626       C  0.89174649  0.70362201  0.12378094    -0.02400
C1627       C  0.91080882  0.69930975  0.11939225     0.06200
C1628       C  0.90306619  0.68774700  0.10613970     0.04300
H1629       H  0.89055467  0.71151829  0.13390145     0.09400
H1630       H  0.91258617  0.68084409  0.09937317     0.08200
O1631       O  0.20178249  0.85065161  0.25498529    -0.71800
O1632       O  0.15475683  0.80634829  0.22422188    -0.72800
O1633       O  0.20130347  0.85321715  0.22476145    -0.61400
O1634       O  0.15505764  0.80414623  0.25448665    -0.69800
O1635       O  0.13423099  0.82507945  0.25571076    -0.69400
O1636       O  0.18030044  0.87397717  0.22592107    -0.60600
O1637       O  0.13353245  0.82689453  0.22533178    -0.73100
O1638       O  0.18115668  0.87178209  0.25628679    -0.71900
Cu1639     Cu  0.17894568  0.82787523  0.23956010     1.04600
Cu1640     Cu  0.15655131  0.85017820  0.24084612     1.04300
C1641       C  0.19903473  0.86822458  0.26038810     0.94400
C1642       C  0.13663140  0.80938649  0.22007041     0.93500
C1643       C  0.19816233  0.87139183  0.22078316     0.85700
C1644       C  0.13736679  0.80693911  0.25972429     0.92000
C1645       C  0.10483487  0.77638332  0.20129467    -0.12100
C1646       C  0.11919697  0.79227501  0.20959154    -0.13700
C1647       C  0.94563133  0.69152582  0.12449492    -0.15300
C1648       C  0.93285712  0.70325823  0.12795232    -0.30500
H1649       H  0.94006845  0.67937809  0.11515158     0.13700
H1650       H  0.93744360  0.71439402  0.13768798     0.14300
C1651       C  0.74513932  0.68702642  0.12301787    -0.15300
C1652       C  0.74768616  0.70072084  0.13478154    -0.30500
H1653       H  0.72673252  0.67597270  0.11801514     0.13700
H1654       H  0.76620873  0.71271410  0.13947270     0.14300
C1655       C  0.52555522  0.59347826  0.13896818    -0.12100
C1656       C  0.54429813  0.60662164  0.14592421    -0.13700
C1657       C  0.37721780  0.51348808  0.06123279    -0.12200
C1658       C  0.37854995  0.51865934  0.07590044     0.09900
C1659       C  0.35684479  0.51487418  0.08308508    -0.12200
C1660       C  0.33403163  0.50583178  0.07575138    -0.12200
C1661       C  0.33244475  0.50041568  0.06103465     0.09900
C1662       C  0.35438037  0.50444102  0.05386037    -0.12200
H1663       H  0.39383265  0.51633309  0.05553363     0.13900
H1664       H  0.35760976  0.51891188  0.09441339     0.13900
H1665       H  0.31773148  0.50311760  0.08169501     0.13900
H1666       H  0.35403120  0.50054439  0.04256444     0.13900
C1667       C  0.51080515  0.86058562  0.05041183    -0.12200
C1668       C  0.51795725  0.84548948  0.05817090     0.09900
C1669       C  0.51323055  0.84247755  0.07295804    -0.12200
C1670       C  0.50124737  0.85380026  0.07975601    -0.12200
C1671       C  0.49405422  0.86872136  0.07199816     0.09900
C1672       C  0.49892349  0.87209571  0.05728235    -0.12200
H1673       H  0.51402575  0.86328978  0.03902104     0.13900
H1674       H  0.51864195  0.83129618  0.07936904     0.13900
H1675       H  0.49760848  0.85098975  0.09113477     0.13900
H1676       H  0.49352226  0.88362180  0.05115102     0.13900
C1677       C  0.51758610  0.67277313  0.07450895    -0.12200
C1678       C  0.52008397  0.67305193  0.05954531     0.09900
C1679       C  0.51246554  0.65009086  0.05238723    -0.12200
C1680       C  0.50196825  0.62735354  0.06000487    -0.12200
C1681       C  0.49893690  0.62723517  0.07487766     0.09900
C1682       C  0.50699081  0.65012435  0.08205643    -0.12200
H1683       H  0.52352309  0.68998069  0.08047885     0.13900
H1684       H  0.51404494  0.64953172  0.04089333     0.13900
H1685       H  0.49580128  0.60980524  0.05430085     0.13900
H1686       H  0.50472120  0.65038058  0.09353209     0.13900
C1687       C  0.06564811  0.59270152  0.13285845    -0.12100
C1688       C  0.06063401  0.60670924  0.13927047    -0.13700
C1689       C  0.14866211  0.48438418  0.07294614    -0.12200
C1690       C  0.14852579  0.48210193  0.05798186     0.09900
C1691       C  0.13356840  0.48891419  0.04981282    -0.12200
C1692       C  0.11973551  0.49854343  0.05646145    -0.12200
C1693       C  0.12064980  0.50150272  0.07135907     0.09900
C1694       C  0.13497881  0.49409127  0.07954273    -0.12200
H1695       H  0.15959234  0.47901546  0.07963009     0.13900
H1696       H  0.13302620  0.48748543  0.03827781     0.13900
H1697       H  0.10875864  0.50420302  0.04999380     0.13900
H1698       H  0.13594171  0.49630080  0.09106099     0.13900
C1699       C  0.33206209  0.83892012  0.06767064    -0.12200
C1700       C  0.33196442  0.83948901  0.05264410     0.09900
C1701       C  0.35505190  0.85373615  0.04540791    -0.12200
C1702       C  0.37778604  0.86673245  0.05307580    -0.12200
C1703       C  0.37773981  0.86574027  0.06807935     0.09900
C1704       C  0.35466467  0.85175484  0.07527585    -0.12200
H1705       H  0.31465969  0.82849356  0.07362745     0.13900
H1706       H  0.35562326  0.85442657  0.03384500     0.13900
H1707       H  0.39540710  0.87748496  0.04733339     0.13900
H1708       H  0.35418631  0.85073734  0.08684567     0.13900
C1709       C  0.15916001  0.66416916  0.06852022    -0.12200
C1710       C  0.15527661  0.66506874  0.05375888     0.09900
C1711       C  0.13741792  0.64280559  0.04674394    -0.12200
C1712       C  0.12395097  0.62012716  0.05436174    -0.12200
C1713       C  0.12805418  0.61948812  0.06908582     0.09900
C1714       C  0.14579415  0.64163797  0.07606384    -0.12200
H1715       H  0.17244152  0.68089789  0.07436213     0.13900
H1716       H  0.13408705  0.64280285  0.03537928     0.13900
H1717       H  0.11031272  0.60312577  0.04882103     0.13900
H1718       H  0.14920870  0.64145456  0.08742055     0.13900
C1719       C  0.23035130  0.90380480  0.20192911    -0.12100
C1720       C  0.21519709  0.88931190  0.21047272    -0.13700
C1721       C  0.32152056  0.06431133  0.12488908    -0.15300
C1722       C  0.31000519  0.07720100  0.12856322    -0.30500
H1723       H  0.33456001  0.07070319  0.11594173     0.13700
H1724       H  0.29811294  0.07182653  0.13800454     0.14300
C1725       C  0.39204946  0.93636569  0.13727405    -0.12100
C1726       C  0.40485082  0.92982999  0.13087533    -0.13700
C1727       C  0.31421522  0.26199933  0.14019852    -0.15300
C1728       C  0.32691121  0.26484333  0.12796293    -0.30500
H1729       H  0.30279012  0.24337553  0.14485444     0.13700
H1730       H  0.33730104  0.28331693  0.12299426     0.14300
C1731       C  0.39406525  0.46477913  0.14592205    -0.12100
C1732       C  0.40756609  0.48351986  0.13910357    -0.13700
C1733       C  0.73200226  0.06969022  0.14760760    -0.15300
C1734       C  0.72825047  0.07953563  0.13564220    -0.30500
H1735       H  0.75100547  0.07680981  0.15168850     0.13700
H1736       H  0.70937180  0.07136967  0.13117416     0.14300
C1737       C  0.53450616  0.93573029  0.14442611    -0.12100
C1738       C  0.51729912  0.92935992  0.13610749    -0.13700
C1739       C  0.92518306  0.25438489  0.14131429    -0.15300
C1740       C  0.91385669  0.25657336  0.12951381    -0.30500
H1741       H  0.91834907  0.23600421  0.14620099     0.13700
H1742       H  0.92173214  0.27475594  0.12422314     0.14300
C1743       C  0.05008802  0.45652217  0.14122409    -0.12100
C1744       C  0.05600114  0.47448459  0.13355821    -0.13700
C1745       C  0.66347509  0.77408036  0.21128741    -0.12100
C1746       C  0.66438641  0.78948993  0.21966617    -0.13700
C1747       C  0.65646524  0.88133979  0.22098546    -0.12100
C1748       C  0.65478358  0.89549637  0.21268600    -0.13700
C1749       C  0.09958260  0.34062992  0.20766075    -0.12100
C1750       C  0.11448831  0.33996900  0.21590644    -0.13700
C1751       C  0.21156960  0.34050916  0.21860865    -0.12100
C1752       C  0.22766867  0.34196969  0.21060145    -0.13700
C1753       C  0.10671305  0.77416541  0.27895988    -0.12100
C1754       C  0.12066039  0.78932862  0.27024822    -0.13700
C1755       C  0.94831268  0.68947068  0.35763024    -0.15300
C1756       C  0.93829816  0.70443186  0.35648637    -0.30500
H1757       H  0.94146268  0.67498815  0.36582805     0.13700
H1758       H  0.94399650  0.71797723  0.34780556     0.14300
C1759       C  0.66671183  0.77453136  0.28844926    -0.12100
C1760       C  0.66716800  0.78958535  0.28000586    -0.13700
C1761       C  0.73686827  0.68711168  0.36582523    -0.15300
C1762       C  0.76166298  0.70261477  0.36366199    -0.30500
H1763       H  0.73049138  0.67245014  0.37390399     0.13700
H1764       H  0.76811236  0.71643319  0.35510271     0.14300
C1765       C  0.52100732  0.58953111  0.35261340    -0.12100
C1766       C  0.53906565  0.60138378  0.34505100    -0.13700
C1767       C  0.38270605  0.51925883  0.43526655    -0.12200
C1768       C  0.38359353  0.52089426  0.42030517     0.09900
C1769       C  0.36159840  0.51485464  0.41262711    -0.12200
C1770       C  0.33898503  0.50731880  0.41976206    -0.12200
C1771       C  0.33792422  0.50576410  0.43474740     0.09900
C1772       C  0.35996638  0.51165278  0.44245385    -0.12200
H1773       H  0.39958828  0.52393912  0.44132885     0.13900
H1774       H  0.36201472  0.51609600  0.40106456     0.13900
H1775       H  0.32233039  0.50264354  0.41349468     0.13900
H1776       H  0.35977609  0.51084224  0.45401374     0.13900
C1777       C  0.06789029  0.59876283  0.35285936    -0.12100
C1778       C  0.06149389  0.60970011  0.34472132    -0.13700
C1779       C  0.11677545  0.63088346  0.43468067    -0.12200
C1780       C  0.12059527  0.63215725  0.41981189     0.09900
C1781       C  0.13500305  0.65579082  0.41331512    -0.12200
C1782       C  0.14553757  0.67777063  0.42146612    -0.12200
C1783       C  0.14247353  0.67668821  0.43640029     0.09900
C1784       C  0.12766437  0.65301564  0.44293541    -0.12200
H1785       H  0.10580161  0.61274442  0.43988957     0.13900
H1786       H  0.13838932  0.65719772  0.40189500     0.13900
H1787       H  0.15639981  0.69561542  0.41598694     0.13900
H1788       H  0.12507560  0.65152628  0.45441054     0.13900
C1789       C  0.15386673  0.52551134  0.41303244    -0.12200
C1790       C  0.13332265  0.52517225  0.41972273     0.09900
C1791       C  0.12804797  0.51802401  0.43408769    -0.12200
C1792       C  0.14346493  0.51140666  0.44174344    -0.12200
C1793       C  0.16439502  0.51203700  0.43510649     0.09900
C1794       C  0.16926869  0.51904068  0.42062794    -0.12200
H1795       H  0.15818754  0.53121009  0.40194914     0.13900
H1796       H  0.11220580  0.51781271  0.43935166     0.13900
H1797       H  0.13905409  0.50603564  0.45283577     0.13900
H1798       H  0.18510470  0.51986287  0.41506984     0.13900
C1799       C  0.52452439  0.67412046  0.41898614    -0.12200
C1800       C  0.52577375  0.67356931  0.43398922     0.09900
C1801       C  0.51727985  0.65026262  0.44085021    -0.12200
C1802       C  0.50655905  0.62785616  0.43291264    -0.12200
C1803       C  0.50434988  0.62841710  0.41799769     0.09900
C1804       C  0.51385511  0.65175591  0.41107398    -0.12200
H1805       H  0.53122129  0.69178889  0.41335617     0.13900
H1806       H  0.51784999  0.64917184  0.45237993     0.13900
H1807       H  0.49928128  0.60998286  0.43842463     0.13900
H1808       H  0.51224786  0.65257085  0.39957509     0.13900
C1809       C  0.48294696  0.84078409  0.41953467    -0.12200
C1810       C  0.48270265  0.86117543  0.42608815     0.09900
C1811       C  0.49227529  0.86830841  0.43999741    -0.12200
C1812       C  0.50208536  0.85511310  0.44725885    -0.12200
C1813       C  0.50231736  0.83452863  0.44071145     0.09900
C1814       C  0.49258328  0.82758071  0.42674931    -0.12200
H1815       H  0.47545469  0.83497892  0.40882694     0.13900
H1816       H  0.49216495  0.88405854  0.44518184     0.13900
H1817       H  0.50950196  0.86109096  0.45794369     0.13900
H1818       H  0.49208606  0.81176950  0.42132312     0.13900
C1819       C  0.34701484  0.84329231  0.42005672    -0.12200
C1820       C  0.36873688  0.86165330  0.42707674     0.09900
C1821       C  0.36741001  0.86708448  0.44149702    -0.12200
C1822       C  0.34430031  0.85457275  0.44872971    -0.12200
C1823       C  0.32226822  0.83648377  0.44160410     0.09900
C1824       C  0.32403885  0.83086219  0.42721176    -0.12200
H1825       H  0.34786690  0.83876271  0.40894396     0.13900
H1826       H  0.38416058  0.88114399  0.44705856     0.13900
H1827       H  0.34374137  0.85929390  0.45981328     0.13900
H1828       H  0.30774154  0.81702507  0.42130229     0.13900
C1829       C  0.23241805  0.89727742  0.27986419    -0.12100
C1830       C  0.21666893  0.88431407  0.27110587    -0.13700
C1831       C  0.30752289  0.04698696  0.36215473    -0.15300
C1832       C  0.30187929  0.06369749  0.35651742    -0.30500
H1833       H  0.31612254  0.05033672  0.37266121     0.13700
H1834       H  0.29385194  0.06074746  0.34585133     0.14300
C1835       C  0.39645965  0.91910605  0.36213209    -0.12100
C1836       C  0.38322467  0.92416283  0.35497587    -0.13700
C1837       C  0.22237299  0.34114480  0.28757435    -0.12100
C1838       C  0.20730413  0.34022303  0.27888411    -0.13700
C1839       C  0.31726563  0.25753872  0.34817232    -0.15300
C1840       C  0.33364702  0.25962466  0.35838750    -0.30500
H1841       H  0.30403746  0.23915254  0.34371261     0.13700
H1842       H  0.34605824  0.27787849  0.36325060     0.14300
C1843       C  0.39140648  0.46028292  0.35165306    -0.12100
C1844       C  0.40533328  0.47915831  0.35827619    -0.13700
C1845       C  0.65783374  0.87857944  0.28197027    -0.12100
C1846       C  0.65539384  0.89088642  0.29119512    -0.13700
C1847       C  0.73403551  0.04681059  0.36896785    -0.15300
C1848       C  0.75797003  0.05839760  0.36424609    -0.30500
H1849       H  0.72928221  0.05377285  0.37844555     0.13700
H1850       H  0.76250518  0.05253191  0.35426212     0.14300
C1851       C  0.53147175  0.93172706  0.35561526    -0.12100
C1852       C  0.51241469  0.92479243  0.36240385    -0.13700
C1853       C  0.09670957  0.34196802  0.28351935    -0.12100
C1854       C  0.11133697  0.34036857  0.27561000    -0.13700
C1855       C  0.93788009  0.26845966  0.35942769    -0.15300
C1856       C  0.92814705  0.24383690  0.35649388    -0.30500
H1857       H  0.93098998  0.27419416  0.36854180     0.13700
H1858       H  0.93400961  0.23799658  0.34698098     0.14300
C1859       C  0.06478335  0.46921584  0.34903273    -0.12100
C1860       C  0.07200099  0.48845060  0.35569212    -0.13700
C1861       C  0.20298401  0.78970141  0.95930486    -0.12100
C1862       C  0.19741828  0.79502126  0.94798267    -0.13700
C1863       C  0.25040808  0.94558262  0.85171322    -0.15300
C1864       C  0.25316363  0.93457535  0.86344726    -0.30500
H1865       H  0.23189033  0.93871752  0.84696908     0.13700
H1866       H  0.27154636  0.94257474  0.86855539     0.14300
C1867       C  0.06555627  0.72956476  0.85404483    -0.15300
C1868       C  0.07621752  0.75464723  0.85270834    -0.30500
H1869       H  0.07288846  0.72180545  0.86187249     0.13700
H1870       H  0.06989279  0.76260384  0.84442326     0.14300
C1871       C  0.39040943  0.20098979  0.03554375    -0.12100
C1872       C  0.40146672  0.20555010  0.02425320    -0.13700
C1873       C  0.50215884  0.38026319  0.93303663    -0.12200
C1874       C  0.50853524  0.38220941  0.91851193     0.09900
C1875       C  0.50513989  0.36081188  0.91116343    -0.12200
C1876       C  0.49560559  0.33775427  0.91821245    -0.12200
C1877       C  0.48930454  0.33556990  0.93282041     0.09900
C1878       C  0.49254436  0.35709817  0.94013851    -0.12200
H1879       H  0.50478444  0.39670213  0.93885880     0.13900
H1880       H  0.51009390  0.36206010  0.89995657     0.13900
H1881       H  0.49323862  0.32171969  0.91211297     0.13900
H1882       H  0.48800155  0.35621059  0.95137179     0.13900
C1883       C  0.64725558  0.50927445  0.94314154    -0.12200
C1884       C  0.66917770  0.51428536  0.93563862     0.09900
C1885       C  0.66785464  0.51076097  0.92075565    -0.12200
C1886       C  0.64511361  0.50211782  0.91351500    -0.12200
C1887       C  0.62318565  0.49684924  0.92097171     0.09900
C1888       C  0.62431827  0.50046311  0.93584258    -0.12200
H1889       H  0.64774716  0.51168882  0.95462809     0.13900
H1890       H  0.68445114  0.51480396  0.91463100     0.13900
H1891       H  0.64452954  0.49932873  0.90204902     0.13900
H1892       H  0.60746402  0.49631074  0.94174990     0.13900
C1893       C  0.80519378  0.60665360  0.02369637    -0.12100
C1894       C  0.80931673  0.61584654  0.03549133    -0.13700
C1895       C  0.92708284  0.51625791  0.85151659    -0.12100
C1896       C  0.93248179  0.53422741  0.84396067    -0.13700
C1897       C  0.87910348  0.50550471  0.93205509    -0.12200
C1898       C  0.87362257  0.49827846  0.91764459     0.09900
C1899       C  0.85525153  0.50148325  0.91059075    -0.12200
C1900       C  0.84220668  0.51130077  0.91782927    -0.12200
C1901       C  0.84719101  0.51816083  0.93233332     0.09900
C1902       C  0.86607205  0.51550833  0.93933473    -0.12200
H1903       H  0.89314705  0.50301486  0.93768934     0.13900
H1904       H  0.85067242  0.49589539  0.89950078     0.13900
H1905       H  0.82810523  0.51338956  0.91200740     0.13900
H1906       H  0.87029128  0.52049780  0.95050631     0.13900
C1907       C  0.58461406  0.79332358  0.94859748    -0.12100
C1908       C  0.57675146  0.78885869  0.96069331    -0.13700
C1909       C  0.67624388  0.74874594  0.84587351    -0.15300
C1910       C  0.66478362  0.74610067  0.85852661    -0.30500
H1911       H  0.68472820  0.76661876  0.84020185     0.13700
H1912       H  0.65787767  0.72866300  0.86450421     0.14300
C1913       C  0.60792564  0.54954988  0.85055136    -0.12100
C1914       C  0.59460738  0.53147993  0.85789948    -0.13700
C1915       C  0.65890434  0.92700802  0.84355632    -0.15300
C1916       C  0.64232610  0.91477744  0.85415925    -0.30500
H1917       H  0.67099026  0.92007887  0.83966903     0.13700
H1918       H  0.63118116  0.92245220  0.85850655     0.14300
C1919       C  0.85516409  0.35711402  0.94333114    -0.12200
C1920       C  0.83766381  0.33514260  0.93594303     0.09900
C1921       C  0.83560106  0.33634378  0.92101623    -0.12200
C1922       C  0.85028037  0.35891155  0.91369402    -0.12200
C1923       C  0.86751813  0.38083501  0.92106312     0.09900
C1924       C  0.86997121  0.37982060  0.93593685    -0.12200
H1925       H  0.85715246  0.35689963  0.95481819     0.13900
H1926       H  0.82267454  0.31985938  0.91488057     0.13900
H1927       H  0.84808949  0.35935135  0.90221757     0.13900
H1928       H  0.88317721  0.39661885  0.94179100     0.13900
C1929       C  0.77980495  0.20288166  0.02806824    -0.12100
C1930       C  0.78432975  0.19700667  0.03952201    -0.13700
C1931       C  0.45266519  0.05567022  0.84385964    -0.12100
C1932       C  0.47057809  0.06155827  0.85154497    -0.13700
C1933       C  0.49043552  0.12283657  0.92928261    -0.12200
C1934       C  0.49487184  0.12641313  0.91451312     0.09900
C1935       C  0.48885396  0.14269156  0.90725514    -0.12200
C1936       C  0.47935996  0.15587709  0.91469752    -0.12200
C1937       C  0.47567579  0.15308676  0.92958859     0.09900
C1938       C  0.48078157  0.13596636  0.93675676    -0.12200
H1939       H  0.49505136  0.11037138  0.93505368     0.13900
H1940       H  0.49220192  0.14572262  0.89586490     0.13900
H1941       H  0.47527054  0.16855024  0.90876521     0.13900
H1942       H  0.47822316  0.13339803  0.94820182     0.13900
C1943       C  0.58876146  0.07191038  0.85384077    -0.12100
C1944       C  0.60180817  0.06650871  0.84675334    -0.13700
C1945       C  0.61698532  0.12593139  0.92968219    -0.12200
C1946       C  0.61346959  0.13614650  0.91708778     0.09900
C1947       C  0.63233089  0.15994252  0.91242758    -0.12200
C1948       C  0.65458977  0.17346770  0.92025395    -0.12200
C1949       C  0.65847333  0.16334465  0.93286371     0.09900
C1950       C  0.63936315  0.13944707  0.93753656    -0.12200
H1951       H  0.60252969  0.10744703  0.93331858     0.13900
H1952       H  0.62977086  0.16799372  0.90270111     0.13900
H1953       H  0.66862358  0.19190397  0.91638822     0.13900
H1954       H  0.64177841  0.13103021  0.94713023     0.13900
C1955       C  0.21189314  0.41608419  0.96616266    -0.12100
C1956       C  0.20640537  0.40476859  0.95497311    -0.13700
C1957       C  0.06801005  0.32197402  0.85166483    -0.15300
C1958       C  0.07793193  0.33432609  0.86399047    -0.30500
H1959       H  0.07636938  0.31230758  0.84621858     0.13700
H1960       H  0.06862221  0.34273418  0.86974904     0.14300
C1961       C  0.93490014  0.39035280  0.85152455    -0.12100
C1962       C  0.92928988  0.40406154  0.85779912    -0.13700
C1963       C  0.25962330  0.32998550  0.84830128    -0.15300
C1964       C  0.26276631  0.34320871  0.86034125    -0.30500
H1965       H  0.24086918  0.31809598  0.84385407     0.13700
H1966       H  0.28136214  0.35385467  0.86518220     0.14300
C1967       C  0.46090861  0.40617041  0.84832245    -0.12100
C1968       C  0.47915846  0.41871519  0.85574959    -0.13700
C1969       C  0.33804883  0.13093191  0.77633850    -0.12100
C1970       C  0.33896395  0.11731871  0.78531812    -0.13700
C1971       C  0.33955363  0.22633393  0.77223978    -0.12100
C1972       C  0.34115084  0.24222400  0.78045586    -0.13700
C1973       C  0.76732518  0.10611199  0.78270925    -0.12100
C1974       C  0.78327365  0.12061924  0.77450381    -0.13700
C1975       C  0.88209332  0.21325792  0.77612264    -0.12100
C1976       C  0.89610165  0.22785490  0.78499060    -0.13700
C1977       C  0.78774244  0.67014106  0.77408460    -0.12100
C1978       C  0.77165476  0.66891381  0.78205679    -0.13700
C1979       C  0.88456104  0.67031067  0.77508868    -0.12100
C1980       C  0.89860664  0.66852584  0.78348158    -0.13700
C1981       C  0.59634881  0.79415050  0.54457946    -0.12100
C1982       C  0.58629415  0.78872957  0.53298235    -0.13700
C1983       C  0.76970381  0.66138710  0.70559274    -0.12100
C1984       C  0.78555807  0.66345846  0.71409117    -0.13700
C1985       C  0.67657486  0.73421743  0.63234360    -0.15300
C1986       C  0.68834095  0.75895626  0.63547805    -0.30500
H1987       H  0.66290040  0.72690535  0.62368655     0.13700
H1988       H  0.70092661  0.76622392  0.64464037     0.14300
C1989       C  0.76789304  0.11117322  0.70616778    -0.12100
C1990       C  0.78407877  0.12510370  0.71436865    -0.13700
C1991       C  0.66930958  0.93230519  0.64786210    -0.15300
C1992       C  0.65424159  0.91926482  0.63686618    -0.30500
H1993       H  0.68276681  0.92736614  0.65208536     0.13700
H1994       H  0.64151812  0.92487617  0.63231878     0.14300
C1995       C  0.85962425  0.35037314  0.54543622    -0.12200
C1996       C  0.84287168  0.32838395  0.55302513     0.09900
C1997       C  0.83981763  0.33026524  0.56779486    -0.12200
C1998       C  0.85301658  0.35347955  0.57478885    -0.12200
C1999       C  0.86966625  0.37537077  0.56722460     0.09900
C2000       C  0.87287583  0.37371691  0.55248425    -0.12200
H2001       H  0.86227720  0.34963069  0.53404736     0.13900
H2002       H  0.82736609  0.31378439  0.57405260     0.13900
H2003       H  0.85028969  0.35441096  0.58616912     0.13900
H2004       H  0.88563639  0.39046527  0.54647994     0.13900
C2005       C  0.80882362  0.19253636  0.46584918    -0.12100
C2006       C  0.81513267  0.18714903  0.45480375    -0.13700
C2007       C  0.87602374  0.49536994  0.55222576    -0.12200
C2008       C  0.87131684  0.49065875  0.56692088     0.09900
C2009       C  0.85352624  0.49530840  0.57350734    -0.12200
C2010       C  0.84027832  0.50407400  0.56551651    -0.12200
C2011       C  0.84451134  0.50836990  0.55074203     0.09900
C2012       C  0.86280217  0.50429447  0.54419747    -0.12200
H2013       H  0.88963247  0.49175803  0.54696756     0.13900
H2014       H  0.84959467  0.49170715  0.58482143     0.13900
H2015       H  0.82661055  0.50736639  0.57094475     0.13900
H2016       H  0.86636634  0.50730196  0.53283209     0.13900
C2017       C  0.80729446  0.60134076  0.45962119    -0.12100
C2018       C  0.81297310  0.61317329  0.44860322    -0.13700
C2019       C  0.59640535  0.52129877  0.62693860    -0.12100
C2020       C  0.60944535  0.53900194  0.63465519    -0.13700
C2021       C  0.62457971  0.49588249  0.54786535    -0.12200
C2022       C  0.62328978  0.48956177  0.56238838     0.09900
C2023       C  0.64487100  0.49255137  0.56931859    -0.12200
C2024       C  0.66740803  0.50141090  0.56186231    -0.12200
C2025       C  0.66890027  0.50744876  0.54725784     0.09900
C2026       C  0.64734208  0.50494958  0.54034631    -0.12200
H2027       H  0.60798306  0.49361678  0.54238190     0.13900
H2028       H  0.64414834  0.48775148  0.58052367     0.13900
H2029       H  0.68367390  0.50351552  0.56762628     0.13900
H2030       H  0.64790202  0.50939258  0.52910533     0.13900
C2031       C  0.48906537  0.32930786  0.56392341    -0.12200
C2032       C  0.48733967  0.32874652  0.54891271     0.09900
C2033       C  0.49559235  0.35156519  0.54152636    -0.12200
C2034       C  0.50586384  0.37447338  0.54899781    -0.12200
C2035       C  0.50808891  0.37493549  0.56395742     0.09900
C2036       C  0.49948853  0.35213484  0.57133527    -0.12200
H2037       H  0.48256558  0.31213899  0.57002036     0.13900
H2038       H  0.49466991  0.35184055  0.52997964     0.13900
H2039       H  0.51237245  0.39189119  0.54311815     0.13900
H2040       H  0.50106155  0.35205848  0.58287227     0.13900
C2041       C  0.41668967  0.20051328  0.45469294    -0.12100
C2042       C  0.40594158  0.19457416  0.44333881    -0.13700
C2043       C  0.58970940  0.07043557  0.63353397    -0.12100
C2044       C  0.60184763  0.06484252  0.64124381    -0.13700
C2045       C  0.64575299  0.14165632  0.57519640    -0.12200
C2046       C  0.62390267  0.12399941  0.56797170     0.09900
C2047       C  0.62546904  0.11857109  0.55354852    -0.12200
C2048       C  0.64873843  0.13109400  0.54639300    -0.12200
C2049       C  0.67057778  0.14934257  0.55357574     0.09900
C2050       C  0.66881059  0.15412680  0.56811110    -0.12200
H2051       H  0.64483240  0.14607316  0.58632130     0.13900
H2052       H  0.60867413  0.10497578  0.54783186     0.13900
H2053       H  0.64948023  0.12702158  0.53520039     0.13900
H2054       H  0.68522509  0.16764349  0.57409641     0.13900
C2055       C  0.50121089  0.14273852  0.54342533    -0.12200
C2056       C  0.49540309  0.15958681  0.55034608     0.09900
C2057       C  0.49944688  0.16329817  0.56517385    -0.12200
C2058       C  0.50908188  0.15061123  0.57287686    -0.12200
C2059       C  0.51462427  0.13367954  0.56599929     0.09900
C2060       C  0.51075467  0.12986508  0.55121152    -0.12200
H2061       H  0.49850887  0.13953401  0.53202311     0.13900
H2062       H  0.49504836  0.17586020  0.57096500     0.13900
H2063       H  0.51204194  0.15382692  0.58428894     0.13900
H2064       H  0.51498683  0.11684359  0.54575295     0.13900
C2065       C  0.18398907  0.81510588  0.53943864    -0.12100
C2066       C  0.18977317  0.80742508  0.52910850    -0.13700
C2067       C  0.33824938  0.12544445  0.71513427    -0.12100
C2068       C  0.33955238  0.11152753  0.70649235    -0.13700
C2069       C  0.25956330  0.95587588  0.62691324    -0.15300
C2070       C  0.23528487  0.94328139  0.63103368    -0.30500
H2071       H  0.26526062  0.95003334  0.61734750     0.13700
H2072       H  0.22958243  0.94849178  0.64084350     0.14300
C2073       C  0.47949741  0.07644707  0.63079763    -0.12100
C2074       C  0.46069696  0.07216802  0.63725399    -0.13700
C2075       C  0.89371690  0.66061944  0.70528673    -0.12100
C2076       C  0.88089300  0.66310081  0.71422527    -0.13700
C2077       C  0.04425686  0.74168594  0.62438689    -0.15300
C2078       C  0.05395339  0.76603847  0.62805408    -0.30500
H2079       H  0.05164984  0.73673931  0.61517981     0.13700
H2080       H  0.04765173  0.77105038  0.63770788     0.14300
C2081       C  0.93312105  0.52061056  0.63151893    -0.12100
C2082       C  0.93822959  0.53925392  0.63845417    -0.13700
C2083       C  0.21427774  0.43738307  0.52874421    -0.12100
C2084       C  0.20847652  0.42488310  0.53949066    -0.13700
C2085       C  0.89670238  0.23221823  0.70648276    -0.12100
C2086       C  0.88262055  0.21721493  0.71520841    -0.13700
C2087       C  0.06767489  0.32145188  0.63855498    -0.15300
C2088       C  0.07772934  0.33475561  0.62653785    -0.30500
H2089       H  0.07527231  0.31048188  0.64326971     0.13700
H2090       H  0.06909027  0.34450552  0.62150225     0.14300
C2091       C  0.93972955  0.39391964  0.63701475    -0.12100
C2092       C  0.93459923  0.40728308  0.63000320    -0.13700
C2093       C  0.33948103  0.22081885  0.71190374    -0.12100
C2094       C  0.34079284  0.23569783  0.70303019    -0.13700
C2095       C  0.25847659  0.32349359  0.63492568    -0.15300
C2096       C  0.26133523  0.33874272  0.62389127    -0.30500
H2097       H  0.24007594  0.31203979  0.63983803     0.13700
H2098       H  0.27957001  0.34938930  0.61870344     0.14300
C2099       C  0.46085414  0.39718134  0.63438329    -0.12100
C2100       C  0.47954840  0.40993118  0.62734799    -0.13700
loop_ 
_geom_bond_atom_site_label_1 
_geom_bond_atom_site_label_2 
_geom_bond_distance 
_geom_bond_site_symmetry_2 
_ccdc_geom_bond_type 
N1            N2   1.321       .  A
N1            C5   1.349       .  A
N1           Cu9   2.079       .  S
N2            C3   1.340       .  A
N2           Cu8   2.063       .  S
C3            C4   1.385       .  A
C3            H6   1.081       .  S
C4            C5   1.386       .  A
C4         C2095   1.481       .  S
C5            H7   1.082       .  S
Cu8          N11   2.063       .  S
Cu9          N19   2.080       .  S
Cu10         N12   2.078       .  S
Cu10         N18   2.079       .  S
N11          N12   1.321       .  A
N11          C15   1.344       .  A
N12          C13   1.347       .  A
C13          C14   1.383       .  A
C13          H16   1.082       .  S
C14          C15   1.378       .  A
C14        C2099   1.437       .  S
C15          H17   1.082       .  S
N18          N19   1.325       .  A
N18          C22   1.345       .  A
N19          C20   1.346       .  A
C20          C21   1.379       .  A
C20          H23   1.082       .  S
C21          C22   1.378       .  A
C21        C2094   1.437       .  S
C22          H24   1.082       .  S
N25          N26   1.326       .  A
N25          C29   1.347       .  A
N25         Cu33   2.081       .  S
N26          C27   1.346       .  A
N26         Cu32   2.086       .  S
C27          C28   1.380       .  A
C27          H30   1.082       .  S
C28          C29   1.380       .  A
C28        C2085   1.440       .  S
C29          H31   1.082       .  S
Cu32         N35   2.085       .  S
Cu33         N43   2.079   1_655  S
Cu34         N36   2.061       .  S
Cu34         N42   2.061   1_655  S
N35          N36   1.322       .  A
N35          C39   1.349       .  A
N36          C37   1.344       .  A
C37          C38   1.378       .  A
C37          H40   1.082       .  S
C38          C39   1.384       .  A
C38        C2091   1.440       .  S
C39          H41   1.082       .  S
N42          N43   1.321       .  A
N42          C46   1.340       .  A
N43          C44   1.349       .  A
C44          C45   1.385       .  A
C44          H47   1.082       .  S
C45          C46   1.384       .  A
C45        C2087   1.479       .  S
C46          H48   1.081       .  S
N49          N50   1.323       .  A
N49          C53   1.349       .  A
N49         Cu57   2.081       .  S
N50          C51   1.341       .  A
N50         Cu56   2.069       .  S
C51          C52   1.378       .  A
C51          H54   1.082       .  S
C52          C53   1.387       .  A
C52        C2096   1.473       .  S
C53          H55   1.082       .  S
Cu56         N59   2.068       .  S
Cu57         N67   2.080       .  S
Cu58         N60   2.064       .  S
Cu58         N66   2.065       .  S
N59          N60   1.321       .  A
N59          C63   1.345       .  A
N60          C61   1.345       .  A
C61          C62   1.379       .  A
C61          H64   1.082       .  S
C62          C63   1.380       .  A
C62        C2084   1.435       .  S
C63          H65   1.082       .  S
N66          N67   1.323       .  A
N66          C70   1.340       .  A
N67          C68   1.348       .  A
C68          C69   1.386       .  A
C68          H71   1.082       .  S
C69          C70   1.377       .  A
C69        C2088   1.471       .  S
C70          H72   1.082       .  S
N73          N74   1.321       .  A
N73          C77   1.347   1_655  A
N73         Cu81   2.071       .  S
N74          C75   1.342   1_655  A
N74         Cu80   2.065       .  S
C75          C76   1.379       .  A
C75          H78   1.082       .  S
C76          C77   1.386       .  A
C76        C2077   1.472       .  S
C77          H79   1.082       .  S
Cu80         N83   2.066       .  S
Cu81         N91   2.073       .  S
Cu82         N84   2.093       .  S
Cu82         N90   2.094       .  S
N83          N84   1.323       .  A
N83          C87   1.344       .  A
N84          C85   1.350       .  A
C85          C86   1.385       .  A
C85          H88   1.082       .  S
C86          C87   1.378       .  A
C86        C2082   1.442       .  S
C87          H89   1.082       .  S
N90          N91   1.325       .  A
N90          C94   1.348       .  A
N91          C92   1.346       .  A
C92          C93   1.378       .  A
C92          H95   1.082       .  S
C93          C94   1.383       .  A
C93        C2075   1.442       .  S
C94          H96   1.082       .  S
N97          N98   1.321       .  A
N97         C101   1.350   1_545  A
N97        Cu105   2.081       .  S
N98          C99   1.340   1_545  A
N98        Cu104   2.060       .  S
C99         C100   1.377       .  A
C99         H102   1.082       .  S
C100        C101   1.389       .  A
C100       C2069   1.474       .  S
C101        H103   1.082       .  S
Cu104       N107   2.060       .  S
Cu105       N115   2.083       .  S
Cu106       N108   2.081       .  S
Cu106       N114   2.083       .  S
N107        N108   1.321       .  A
N107        C111   1.343       .  A
N108        C109   1.349       .  A
C109        C110   1.384       .  A
C109        H112   1.082       .  S
C110        C111   1.377       .  A
C110       C2074   1.439       .  S
C111        H113   1.082       .  S
N114        N115   1.326       .  A
N114        C118   1.346       .  A
N115        C116   1.347       .  A
C116        C117   1.379       .  A
C116        H119   1.082       .  S
C117        C118   1.379       .  A
C117       C2068   1.438       .  S
C118        H120   1.082       .  S
N121        N122   1.322       .  A
N121        C125   1.346       .  A
N121       Cu129   2.075       .  S
N122        C123   1.341       .  A
N122       Cu128   2.063       .  S
C123        C124   1.384       .  A
C123        H126   1.081       .  S
C124        C125   1.383       .  A
C124       C2078   1.476       .  S
C125        H127   1.082       .  S
Cu128       N131   2.062       .  S
Cu129       N139   2.075       .  S
Cu130       N132   2.072       .  S
Cu130       N138   2.073       .  S
N131        N132   1.322       .  A
N131        C135   1.344       .  A
N132        C133   1.346       .  A
C133        C134   1.380       .  A
C133        H136   1.082       .  S
C134        C135   1.377       .  A
C134       C2065   1.434       .  S
C135        H137   1.082       .  S
N138        N139   1.322       .  A
N138        C142   1.343       .  A
N139        C140   1.346       .  A
C140        C141   1.383       .  A
C140        H143   1.082       .  S
C141        C142   1.387       .  A
C141       C2070   1.480       .  S
C142        H144   1.081       .  S
N145        C150   1.352       .  A
N145        C149   1.353       .  A
N145        H177   1.041       .  S
N146        C153   1.351       .  A
N146        C154   1.350       .  A
N147        C152   1.353       .  A
N147        C151   1.350       .  A
N147        H178   1.039       .  S
N148        C155   1.349       .  A
N148        C156   1.352       .  A
C149        C157   1.387       .  A
C149        C165   1.413       .  A
C150        C166   1.413       .  A
C150        C158   1.387       .  A
C151        C159   1.388       .  A
C151        C168   1.412       .  A
C152        C167   1.411       .  A
C152        C160   1.386       .  A
C153        C165   1.410       .  A
C153        C161   1.385       .  A
C154        C168   1.411       .  A
C154        C162   1.388       .  A
C155        C163   1.386       .  A
C155        C166   1.411       .  A
C156        C164   1.386       .  A
C156        C167   1.410       .  A
C157        C158   1.375       .  A
C157        H169   1.082       .  S
C158        H170   1.082       .  S
C159        C160   1.379       .  A
C159        H171   1.082       .  S
C160        H172   1.082       .  S
C161        C162   1.372       .  A
C161        H173   1.083       .  S
C162        H174   1.082       .  S
C163        C164   1.371       .  A
C163        H175   1.082       .  S
C164        H176   1.082       .  S
C165       C2046   1.483       .  S
C166       C2059   1.482       .  S
C167       C2073   1.451       .  S
C168       C2043   1.445       .  S
N179        N180   1.320       .  A
N179        C183   1.349       .  A
N179       Cu187   2.084       .  S
N180        C181   1.339       .  A
N180       Cu186   2.050       .  S
C181        C182   1.383       .  A
C181        H184   1.081       .  S
C182        C183   1.392       .  A
C182       C2032   1.483       .  S
C183        H185   1.081       .  S
Cu186       N189   2.050       .  S
Cu187       N197   2.086       .  S
Cu188       N190   2.069       .  S
Cu188       N196   2.071       .  S
N189        N190   1.318       .  A
N189        C193   1.338       .  A
N190        C191   1.346       .  A
C191        C192   1.390       .  A
C191        H194   1.081       .  S
C192        C193   1.385       .  A
C192       C2056   1.482       .  S
C193        H195   1.081       .  S
N196        N197   1.326       .  A
N196        C200   1.344       .  A
N197        C198   1.346       .  A
C198        C199   1.380       .  A
C198        H201   1.082       .  S
C199        C200   1.376       .  A
C199       C2041   1.434       .  S
C200        H202   1.082       .  S
N203        C208   1.354       .  A
N203        C207   1.353       .  A
N203        H235   1.041       .  S
N204        C211   1.351       .  A
N204        C212   1.352       .  A
N205        C210   1.353       .  A
N205        C209   1.353       .  A
N205        H236   1.039       .  S
N206        C213   1.351       .  A
N206        C214   1.351       .  A
C207        C215   1.387       .  A
C207        C223   1.414       .  A
C208        C224   1.415       .  A
C208        C216   1.387       .  A
C209        C217   1.388       .  A
C209        C226   1.415       .  A
C210        C225   1.413       .  A
C210        C218   1.387       .  A
C211        C223   1.412       .  A
C211        C219   1.386       .  A
C212        C226   1.412       .  A
C212        C220   1.387       .  A
C213        C221   1.386       .  A
C213        C224   1.412       .  A
C214        C222   1.387       .  A
C214        C225   1.412       .  A
C215        C216   1.375       .  A
C215        H227   1.082       .  S
C216        H228   1.082       .  S
C217        C218   1.378       .  A
C217        H229   1.082       .  S
C218        H230   1.082       .  S
C219        C220   1.373       .  A
C219        H231   1.083       .  S
C220        H232   1.082       .  S
C221        C222   1.371       .  A
C221        H233   1.082       .  S
C222        H234   1.082       .  S
C223       C2022   1.482       .  S
C224       C2035   1.489       .  S
C225       C2100   1.450       .  S
C226       C2019   1.453       .  S
N237        N238   1.319       .  A
N237        C241   1.350       .  A
N237       Cu245   2.082       .  S
N238        C239   1.337       .  A
N238       Cu244   2.052       .  S
C239        C240   1.382       .  A
C239        H242   1.081       .  S
C240        C241   1.391       .  A
C240       C2025   1.482       .  S
C241        H243   1.082       .  S
Cu244       N247   2.052       .  S
Cu245       N255   2.084       .  S
Cu246       N248   2.085       .  S
Cu246       N254   2.087       .  S
N247        N248   1.319       .  A
N247        C251   1.340       .  A
N248        C249   1.349       .  A
C249        C250   1.391       .  A
C249        H252   1.082       .  S
C250        C251   1.383       .  A
C250       C2011   1.482       .  S
C251        H253   1.082       .  S
N254        N255   1.327       .  A
N254        C258   1.347       .  A
N255        C256   1.346       .  A
C256        C257   1.378       .  A
C256        H259   1.082       .  S
C257        C258   1.379       .  A
C257       C2017   1.438       .  S
C258        H260   1.082       .  S
N261        N262   1.319       .  A
N261        C265   1.348       .  A
N261       Cu269   2.082       .  S
N262        C263   1.340       .  A
N262       Cu268   2.054       .  S
C263        C264   1.385       .  A
C263        H266   1.081       .  S
C264        C265   1.391       .  A
C264       C1996   1.485       .  S
C265        H267   1.081       .  S
Cu268       N271   2.054       .  S
Cu269       N279   2.084       .  S
Cu270       N272   2.080       .  S
Cu270       N278   2.083       .  S
N271        N272   1.320       .  A
N271        C275   1.337       .  A
N272        C273   1.350       .  A
C273        C274   1.391       .  A
C273        H276   1.082       .  S
C274        C275   1.383       .  A
C274       C2049   1.482       .  S
C275        H277   1.081       .  S
N278        N279   1.327       .  A
N278        C282   1.346       .  A
N279        C280   1.346       .  A
C280        C281   1.378       .  A
C280        H283   1.082       .  S
C281        C282   1.379       .  A
C281       C2005   1.438       .  S
C282        H284   1.082       .  S
N285        C290   1.355       .  A
N285        C289   1.354       .  A
N285        H317   1.040       .  S
N286        C293   1.353       .  A
N286        C294   1.353       .  A
N287        C292   1.354       .  A
N287        C291   1.354       .  A
N287        H318   1.037       .  S
N288        C295   1.351       .  A
N288        C296   1.352       .  A
C289        C297   1.387       .  A
C289        C305   1.416       .  A
C290        C306   1.416       .  A
C290        C298   1.387       .  A
C291        C299   1.387       .  A
C291        C308   1.416       .  A
C292        C307   1.416       .  A
C292        C300   1.387       .  A
C293        C305   1.414       .  A
C293        C301   1.386       .  A
C294        C308   1.415       .  A
C294        C302   1.388       .  A
C295        C303   1.386       .  A
C295        C306   1.412       .  A
C296        C304   1.388       .  A
C296        C307   1.413       .  A
C297        C298   1.374       .  A
C297        H309   1.082       .  S
C298        H310   1.082       .  S
C299        C300   1.379       .  A
C299        H311   1.082       .  S
C300        H312   1.082       .  S
C301        C302   1.371       .  A
C301        H313   1.082       .  S
C302        H314   1.082       .  S
C303        C304   1.371       .  A
C303        H315   1.082       .  S
C304        H316   1.082       .  S
C305       C2008   1.488       .  S
C306       C1999   1.488       .  S
C307       C2092   1.453       .  S
C308       C2081   1.455       .  S
N319        N320   1.324       .  A
N319        C323   1.344       .  A
N319       Cu327   2.068       .  S
N320        C321   1.344       .  A
N320       Cu326   2.066       .  S
C321        C322   1.377       .  A
C321        H324   1.082       .  S
C322        C323   1.377       .  A
C322       C1989   1.430       .  S
C323        H325   1.082       .  S
Cu326       N329   2.066       .  S
Cu327       N337   2.068   1_545  S
Cu328       N330   2.065       .  S
Cu328       N336   2.066   1_545  S
N329        N330   1.322       .  A
N329        C333   1.345       .  A
N330        C331   1.343       .  A
C331        C332   1.377       .  A
C331        H334   1.082       .  S
C332        C333   1.379       .  A
C332       C2044   1.431       .  S
C333        H335   1.082       .  S
N336        N337   1.321       .  A
N336        C340   1.342       .  A
N337        C338   1.346       .  A
C338        C339   1.383       .  A
C338        H341   1.082       .  S
C339        C340   1.386       .  A
C339       C1991   1.478       .  S
C340        H342   1.081       .  S
N343        N344   1.321       .  A
N343        C347   1.353       .  A
N343       Cu351   2.095       .  S
N344        C345   1.339       .  A
N344       Cu350   2.052       .  S
C345        C346   1.376       .  A
C345        H348   1.082       .  S
C346        C347   1.392       .  A
C346       C1985   1.476       .  S
C347        H349   1.082       .  S
Cu350       N353   2.052       .  S
Cu351       N361   2.097       .  S
Cu352       N354   2.091       .  S
Cu352       N360   2.093       .  S
N353        N354   1.321       .  A
N353        C357   1.342       .  A
N354        C355   1.350       .  A
C355        C356   1.387       .  A
C355        H358   1.082       .  S
C356        C357   1.376       .  A
C356       C2020   1.440       .  S
C357        H359   1.082       .  S
N360        N361   1.327       .  A
N360        C364   1.347       .  A
N361        C362   1.349       .  A
C362        C363   1.382       .  A
C362        H365   1.082       .  S
C363        C364   1.380       .  A
C363       C1983   1.445       .  S
C364        H366   1.082       .  S
N367        N368   1.323       .  A
N367        C371   1.348       .  A
N367       Cu375   2.080       .  S
N368        C369   1.344       .  A
N368       Cu374   2.080       .  S
C369        C370   1.387       .  A
C369        H372   1.081       .  S
C370        C371   1.384       .  A
C370       C1986   1.483       .  S
C371        H373   1.082       .  S
Cu374       N377   2.078       .  S
Cu375       N385   2.080       .  S
Cu376       N378   2.068       .  S
Cu376       N384   2.068       .  S
N377        N378   1.322       .  A
N377        C381   1.347       .  A
N378        C379   1.346       .  A
C379        C380   1.380       .  A
C379        H382   1.082       .  S
C380        C381   1.382       .  A
C380       C1981   1.440       .  S
C381        H383   1.082       .  S
N384        N385   1.323       .  A
N384        C388   1.341       .  A
N385        C386   1.348       .  A
C386        C387   1.387       .  A
C386        H389   1.082       .  S
C387        C388   1.378       .  A
C387       C1992   1.473       .  S
C388        H390   1.082       .  S
O391       Cu399   2.024       .  S
O391        C401   1.278       .  A
O392       Cu399   2.023       .  S
O392        C402   1.278       .  A
O393       Cu399   2.025       .  S
O393        C403   1.278       .  A
O394       Cu399   2.023       .  S
O394        C404   1.278       .  A
O395       Cu400   2.014       .  S
O395        C404   1.277       .  A
O396       Cu400   2.012       .  S
O396        C403   1.277       .  A
O397       Cu400   2.007       .  S
O397        C402   1.276       .  A
O398       Cu400   2.008       .  S
O398        C401   1.276       .  A
Cu399      Cu400   2.377       .  S
C401       C2076   1.440       .  S
C402       C1977   1.439       .  S
C403       C1979   1.441       .  S
C404       C1984   1.443       .  S
O405       Cu413   2.006       .  S
O405        C415   1.276       .  A
O406       Cu413   2.008       .  S
O406        C416   1.276       .  A
O407       Cu413   2.018       .  S
O407        C417   1.277       .  A
O408       Cu413   2.017       .  S
O408        C418   1.277       .  A
O409       Cu414   2.011       .  S
O409        C418   1.277       .  A
O410       Cu414   2.014       .  S
O410        C417   1.277       .  A
O411       Cu414   1.999       .  S
O411        C416   1.275       .  A
O412       Cu414   1.998       .  S
O412        C415   1.275       .  A
Cu413      Cu414   2.380       .  S
C415       C1990   1.428       .  S
C416       C1975   1.431       .  S
C417       C1974   1.440       .  S
C418       C2086   1.438       .  S
O419       Cu427   2.012       .  S
O419        C429   1.277       .  A
O420       Cu427   2.013       .  S
O420        C430   1.277       .  A
O421       Cu427   2.012       .  S
O421        C431   1.277       .  A
O422       Cu427   2.015       .  S
O422        C432   1.277       .  A
O423       Cu428   2.005       .  S
O423        C432   1.276       .  A
O424       Cu428   2.002       .  S
O424        C431   1.275       .  A
O425       Cu428   2.006       .  S
O425        C430   1.276       .  A
O426       Cu428   2.006       .  S
O426        C429   1.276       .  A
Cu427      Cu428   2.380       .  S
C429       C2093   1.435       .  S
C430       C1969   1.434       .  S
C431       C1971   1.433       .  S
C432       C2067   1.436       .  S
N433        N434   1.321       .  A
N433        C437   1.347       .  A
N433       Cu441   2.072       .  S
N434        C435   1.340       .  A
N434       Cu440   2.061       .  S
C435        C436   1.384       .  A
C435        H438   1.081       .  S
C436        C437   1.384       .  A
C436       C1963   1.476       .  S
C437        H439   1.082       .  S
Cu440       N443   2.062       .  S
Cu441       N451   2.073       .  S
Cu442       N444   2.079       .  S
Cu442       N450   2.080       .  S
N443        N444   1.322       .  A
N443        C447   1.343       .  A
N444        C445   1.347       .  A
C445        C446   1.383       .  A
C445        H448   1.082       .  S
C446        C447   1.378       .  A
C446       C1967   1.437       .  S
C447        H449   1.082       .  S
N450        N451   1.325       .  A
N450        C454   1.345       .  A
N451        C452   1.345       .  A
C452        C453   1.378       .  A
C452        H455   1.082       .  S
C453        C454   1.379       .  A
C453       C1972   1.435       .  S
C454        H456   1.082       .  S
N457        N458   1.325       .  A
N457        C461   1.346       .  A
N457       Cu465   2.074       .  S
N458        C459   1.344       .  A
N458       Cu464   2.075       .  S
C459        C460   1.377       .  A
C459        H462   1.082       .  S
C460        C461   1.378       .  A
C460       C1976   1.433       .  S
C461        H463   1.082       .  S
Cu464       N467   2.075       .  S
Cu465       N475   2.074   1_655  S
Cu466       N468   2.070       .  S
Cu466       N474   2.069   1_655  S
N467        N468   1.321       .  A
N467        C471   1.347       .  A
N468        C469   1.345       .  A
C469        C470   1.379       .  A
C469        H472   1.082       .  S
C470        C471   1.382       .  A
C470       C1961   1.440       .  S
C471        H473   1.082       .  S
N474        N475   1.322       .  A
N474        C478   1.341       .  A
N475        C476   1.348       .  A
C476        C477   1.384       .  A
C476        H479   1.082       .  S
C477        C478   1.385       .  A
C477       C1957   1.479       .  S
C478        H480   1.081       .  S
N481        N482   1.322       .  A
N481        C485   1.347       .  A
N481       Cu489   2.075       .  S
N482        C483   1.341       .  A
N482       Cu488   2.065       .  S
C483        C484   1.378       .  A
C483        H486   1.082       .  S
C484        C485   1.385       .  A
C484       C1964   1.471       .  S
C485        H487   1.082       .  S
Cu488       N491   2.064       .  S
Cu489       N499   2.075       .  S
Cu490       N492   2.073       .  S
Cu490       N498   2.074       .  S
N491        N492   1.322       .  A
N491        C495   1.345       .  A
N492        C493   1.346       .  A
C493        C494   1.381       .  A
C493        H496   1.082       .  S
C494        C495   1.378       .  A
C494       C1956   1.436       .  S
C495        H497   1.082       .  S
N498        N499   1.323       .  A
N498        C502   1.342       .  A
N499        C500   1.348       .  A
C500        C501   1.385       .  A
C500        H503   1.082       .  S
C501        C502   1.379       .  A
C501       C1958   1.473       .  S
C502        H504   1.082       .  S
N505        C510   1.354       .  A
N505        C509   1.352       .  A
N505        H537   1.040       .  S
N506        C513   1.350       .  A
N506        C514   1.351       .  A
N507        C512   1.351       .  A
N507        C511   1.353       .  A
N507        H538   1.039       .  S
N508        C515   1.352       .  A
N508        C516   1.350       .  A
C509        C517   1.387       .  A
C509        C525   1.413       .  A
C510        C526   1.415       .  A
C510        C518   1.387       .  A
C511        C519   1.387       .  A
C511        C528   1.413       .  A
C512        C527   1.412       .  A
C512        C520   1.388       .  A
C513        C525   1.410       .  A
C513        C521   1.387       .  A
C514        C528   1.410       .  A
C514        C522   1.387       .  A
C515        C523   1.385       .  A
C515        C526   1.412       .  A
C516        C524   1.388       .  A
C516        C527   1.413       .  A
C517        C518   1.374       .  A
C517        H529   1.082       .  S
C518        H530   1.082       .  S
C519        C520   1.377       .  A
C519        H531   1.082       .  S
C520        H532   1.082       .  S
C521        C522   1.372       .  A
C521        H533   1.082       .  S
C522        H534   1.082       .  S
C523        C524   1.373       .  A
C523        H535   1.082       .  S
C524        H536   1.082       .  S
C525       C1946   1.477       .  S
C526       C1934   1.488       .  S
C527       C1932   1.447       .  S
C528       C1943   1.451       .  S
N539        N540   1.319       .  A
N539        C543   1.349       .  A
N539       Cu547   2.086       .  S
N540        C541   1.339       .  A
N540       Cu546   2.052       .  S
C541        C542   1.384       .  A
C541        H544   1.081       .  S
C542        C543   1.392       .  A
C542       C1920   1.485       .  S
C543        H545   1.081       .  S
Cu546       N549   2.052       .  S
Cu547       N557   2.088       .  S
Cu548       N550   2.073       .  S
Cu548       N556   2.076       .  S
N549        N550   1.319       .  A
N549        C553   1.339       .  A
N550        C551   1.347       .  A
C551        C552   1.390       .  A
C551        H554   1.081       .  S
C552        C553   1.384       .  A
C552       C1949   1.481       .  S
C553        H555   1.081       .  S
N556        N557   1.326       .  A
N556        C560   1.345   1_556  A
N557        C558   1.346   1_556  A
C558        C559   1.380       .  A
C558        H561   1.082       .  S
C559        C560   1.377       .  A
C559       C1929   1.437       .  S
C560        H562   1.082       .  S
N563        N564   1.325       .  A
N563        C567   1.349       .  A
N563       Cu571   2.092       .  S
N564        C565   1.345       .  A
N564       Cu570   2.079       .  S
C565        C566   1.378       .  A
C565        H568   1.082       .  S
C566        C567   1.383       .  A
C566       C1973   1.442       .  S
C567        H569   1.082       .  S
Cu570       N573   2.078       .  S
Cu571       N581   2.091   1_545  S
Cu572       N574   2.061       .  S
Cu572       N580   2.062   1_545  S
N573        N574   1.321       .  A
N573        C577   1.348       .  A
N574        C575   1.343       .  A
C575        C576   1.377       .  A
C575        H578   1.082       .  S
C576        C577   1.383       .  A
C576       C1944   1.437       .  S
C577        H579   1.082       .  S
N580        N581   1.322       .  A
N580        C584   1.342       .  A
N581        C582   1.349       .  A
C582        C583   1.387       .  A
C582        H585   1.082       .  S
C583        C584   1.383       .  A
C583       C1915   1.481       .  S
C584        H586   1.081       .  S
N587        N588   1.321       .  A
N587        C591   1.350       .  A
N587       Cu595   2.084       .  S
N588        C589   1.339       .  A
N588       Cu594   2.055       .  S
C589        C590   1.382       .  A
C589        H592   1.082       .  S
C590        C591   1.387       .  A
C590       C1909   1.479       .  S
C591        H593   1.082       .  S
Cu594       N597   2.055       .  S
Cu595       N605   2.085       .  S
Cu596       N598   2.086       .  S
Cu596       N604   2.087       .  S
N597        N598   1.321       .  A
N597        C601   1.342       .  A
N598        C599   1.349       .  A
C599        C600   1.384       .  A
C599        H602   1.082       .  S
C600        C601   1.376       .  A
C600       C1913   1.437       .  S
C601        H603   1.082       .  S
N604        N605   1.326       .  A
N604        C608   1.346       .  A
N605        C606   1.347       .  A
C606        C607   1.380       .  A
C606        H609   1.082       .  S
C607        C608   1.380       .  A
C607       C1978   1.441       .  S
C608        H610   1.082       .  S
N611        N612   1.322       .  A
N611        C615   1.348       .  A
N611       Cu619   2.076       .  S
N612        C613   1.342       .  A
N612       Cu618   2.071       .  S
C613        C614   1.380       .  A
C613        H616   1.082       .  S
C614        C615   1.385       .  A
C614       C1910   1.473       .  S
C615        H617   1.082       .  S
Cu618       N621   2.070       .  S
Cu619       N629   2.076       .  S
Cu620       N622   2.079       .  S
Cu620       N628   2.079       .  S
N621        N622   1.322       .  A
N621        C625   1.345       .  A
N622        C623   1.347       .  A
C623        C624   1.381       .  A
C623        H626   1.082       .  S
C624        C625   1.379       .  A
C624       C1907   1.438       .  S
C625        H627   1.082       .  S
N628        N629   1.323       .  A
N628        C632   1.344       .  A
N629        C630   1.347       .  A
C630        C631   1.385       .  A
C630        H633   1.082       .  S
C631        C632   1.382       .  A
C631       C1916   1.477       .  S
C632        H634   1.082       .  S
N635        C640   1.355       .  A
N635        C639   1.355       .  A
N635        H667   1.040       .  S
N636        C643   1.353       .  A
N636        C644   1.352       .  A
N637        C642   1.353       .  A
N637        C641   1.352       .  A
N637        H668   1.038       .  S
N638        C645   1.350       .  A
N638        C646   1.352       .  A
C639        C647   1.387       .  A
C639        C655   1.415       .  A
C640        C656   1.416       .  A
C640        C648   1.387       .  A
C641        C649   1.388       .  A
C641        C658   1.415       .  A
C642        C657   1.414       .  A
C642        C650   1.387       .  A
C643        C655   1.413       .  A
C643        C651   1.385       .  A
C644        C658   1.414       .  A
C644        C652   1.388       .  A
C645        C653   1.386       .  A
C645        C656   1.411       .  A
C646        C654   1.387       .  A
C646        C657   1.412       .  A
C647        C648   1.374       .  A
C647        H659   1.082       .  S
C648        H660   1.082       .  S
C649        C650   1.379       .  A
C649        H661   1.082       .  S
C650        H662   1.082       .  S
C651        C652   1.371       .  A
C651        H663   1.082       .  S
C652        H664   1.082       .  S
C653        C654   1.372       .  A
C653        H665   1.083       .  S
C654        H666   1.082       .  S
C655       C1898   1.489       .  S
C656       C1923   1.487       .  S
C657       C1962   1.453       .  S
C658       C1895   1.451       .  S
N669        N670   1.320       .  A
N669        C673   1.348       .  A
N669       Cu677   2.072       .  S
N670        C671   1.339       .  A
N670       Cu676   2.058       .  S
C671        C672   1.382       .  A
C671        H674   1.082       .  S
C672        C673   1.388       .  A
C672       C1884   1.477       .  S
C673        H675   1.082       .  S
Cu676       N679   2.058       .  S
Cu677       N687   2.074       .  S
Cu678       N680   2.087       .  S
Cu678       N686   2.089       .  S
N679        N680   1.319       .  A
N679        C683   1.341       .  A
N680        C681   1.350       .  A
C681        C682   1.392       .  A
C681        H684   1.082       .  S
C682        C683   1.385       .  A
C682       C1901   1.486       .  S
C683        H685   1.081       .  S
N686        N687   1.326       .  A
N686        C690   1.346   1_556  A
N687        C688   1.345   1_556  A
C688        C689   1.377       .  A
C688        H691   1.082       .  S
C689        C690   1.379       .  A
C689       C1893   1.436       .  S
C690        H692   1.082       .  S
N693        C698   1.353       .  A
N693        C697   1.353       .  A
N693        H725   1.040       .  S
N694        C701   1.351       .  A
N694        C702   1.351       .  A
N695        C700   1.353       .  A
N695        C699   1.353       .  A
N695        H726   1.038       .  S
N696        C703   1.352       .  A
N696        C704   1.352       .  A
C697        C705   1.387       .  A
C697        C713   1.414       .  A
C698        C714   1.413       .  A
C698        C706   1.387       .  A
C699        C707   1.388       .  A
C699        C716   1.414       .  A
C700        C715   1.414       .  A
C700        C708   1.387       .  A
C701        C713   1.412       .  A
C701        C709   1.386       .  A
C702        C716   1.412       .  A
C702        C710   1.387       .  A
C703        C711   1.385       .  A
C703        C714   1.412       .  A
C704        C712   1.388       .  A
C704        C715   1.413       .  A
C705        C706   1.373       .  A
C705        H717   1.082       .  S
C706        H718   1.082       .  S
C707        C708   1.377       .  A
C707        H719   1.082       .  S
C708        H720   1.082       .  S
C709        C710   1.371       .  A
C709        H721   1.082       .  S
C710        H722   1.082       .  S
C711        C712   1.371       .  A
C711        H723   1.082       .  S
C712        H724   1.082       .  S
C713       C1887   1.484       .  S
C714       C1874   1.484       .  S
C715       C1968   1.450       .  S
C716       C1914   1.451       .  S
N727        N728   1.319       .  A
N727        C731   1.348       .  A
N727       Cu735   2.081       .  S
N728        C729   1.340       .  A
N728       Cu734   2.058       .  S
C729        C730   1.386       .  A
C729        H732   1.081       .  S
C730        C731   1.392       .  A
C730       C1877   1.486       .  S
C731        H733   1.081       .  S
Cu734       N737   2.058       .  S
Cu735       N745   2.083       .  S
Cu736       N738   2.093       .  S
Cu736       N744   2.095       .  S
N737        N738   1.320       .  A
N737        C741   1.341       .  A
N738        C739   1.350       .  A
C739        C740   1.393       .  A
C739        H742   1.081       .  S
C740        C741   1.384       .  A
C740       C1937   1.487       .  S
C741        H743   1.081       .  S
N744        N745   1.326       .  A
N744        C748   1.348   1_556  A
N745        C746   1.346   1_556  A
C746        C747   1.379       .  A
C746        H749   1.082       .  S
C747        C748   1.382       .  A
C747       C1872   1.443       .  S
C748        H750   1.082       .  S
N751        N752   1.321       .  A
N751        C755   1.348       .  A
N751       Cu759   2.084   1_455  S
N752        C753   1.340       .  A
N752       Cu758   2.051   1_455  S
C753        C754   1.376       .  A
C753        H756   1.082       .  S
C754        C755   1.389       .  A
C754       C1867   1.471       .  S
C755        H757   1.082       .  S
Cu758       N761   2.051       .  S
Cu759       N769   2.086       .  S
Cu760       N762   2.087       .  S
Cu760       N768   2.088       .  S
N761        N762   1.321       .  A
N761        C765   1.342       .  A
N762        C763   1.349       .  A
C763        C764   1.385       .  A
C763        H766   1.082       .  S
C764        C765   1.376       .  A
C764       C1896   1.437       .  S
C765        H767   1.082       .  S
N768        N769   1.326       .  A
N768        C772   1.346       .  A
N769        C770   1.349       .  A
C770        C771   1.381       .  A
C770        H773   1.082       .  S
C771        C772   1.380       .  A
C771       C1980   1.443       .  S
C772        H774   1.082       .  S
N775        N776   1.321   1_545  A
N775        C779   1.348   1_545  A
N775       Cu783   2.074       .  S
N776        C777   1.340       .  A
N776       Cu782   2.060   1_565  S
C777        C778   1.383       .  A
C777        H780   1.082       .  S
C778        C779   1.384       .  A
C778       C1863   1.475       .  S
C779        H781   1.082       .  S
Cu782       N785   2.059       .  S
Cu783       N793   2.075       .  S
Cu784       N786   2.076       .  S
Cu784       N792   2.077       .  S
N785        N786   1.321       .  A
N785        C789   1.343       .  A
N786        C787   1.346       .  A
C787        C788   1.382       .  A
C787        H790   1.082       .  S
C788        C789   1.377       .  A
C788       C1931   1.433       .  S
C789        H791   1.082       .  S
N792        N793   1.325       .  A
N792        C796   1.345       .  A
N793        C794   1.345       .  A
C794        C795   1.378       .  A
C794        H797   1.082       .  S
C795        C796   1.379       .  A
C795       C1970   1.436       .  S
C796        H798   1.082       .  S
N799        N800   1.323       .  A
N799        C803   1.344       .  A
N799       Cu807   2.064       .  S
N800        C801   1.344       .  A
N800       Cu806   2.079       .  S
C801        C802   1.387       .  A
C801        H804   1.082       .  S
C802        C803   1.379       .  A
C802       C1868   1.474       .  S
C803        H805   1.082       .  S
Cu806       N809   2.079       .  S
Cu807       N817   2.064       .  S
Cu808       N810   2.069       .  S
Cu808       N816   2.069       .  S
N809        N810   1.323       .  A
N809        C813   1.347       .  A
N810        C811   1.344       .  A
C811        C812   1.378       .  A
C811        H814   1.082       .  S
C812        C813   1.382       .  A
C812       C1862   1.438       .  S
C813        H815   1.082       .  S
N816        N817   1.321       .  A
N816        C820   1.342       .  A
N817        C818   1.346       .  A
C818        C819   1.385       .  A
C818        H821   1.082       .  S
C819        C820   1.380       .  A
C819       C1864   1.471       .  S
C820        H822   1.082       .  S
N823        N824   1.322       .  A
N823        C827   1.346       .  A
N823       Cu831   2.076   1_655  S
N824        C825   1.342       .  A
N824       Cu830   2.064   1_655  S
C825        C826   1.379       .  A
C825        H828   1.082       .  S
C826        C827   1.386       .  A
C826       C1855   1.473       .  S
C827        H829   1.082       .  S
Cu830       N833   2.064       .  S
Cu831       N841   2.076       .  S
Cu832       N834   2.063       .  S
Cu832       N840   2.064       .  S
N833        N834   1.322       .  A
N833        C837   1.343       .  A
N834        C835   1.345       .  A
C835        C836   1.378       .  A
C835        H838   1.082       .  S
C836        C837   1.378       .  A
C836       C1859   1.431       .  S
C837        H839   1.082       .  S
N840        N841   1.323       .  A
N840        C844   1.343       .  A
N841        C842   1.346       .  A
C842        C843   1.380       .  A
C842        H845   1.082       .  S
C843        C844   1.377       .  A
C843       C1853   1.434       .  S
C844        H846   1.082       .  S
N847        N848   1.321       .  A
N847        C851   1.346   1_565  A
N847       Cu855   2.069       .  S
N848        C849   1.342   1_565  A
N848       Cu854   2.066       .  S
C849        C850   1.379       .  A
C849        H852   1.082       .  S
C850        C851   1.385       .  A
C850       C1847   1.472       .  S
C851        H853   1.082       .  S
Cu854       N857   2.066       .  S
Cu855       N865   2.069       .  S
Cu856       N858   2.071       .  S
Cu856       N864   2.072       .  S
N857        N858   1.322       .  A
N857        C861   1.343       .  A
N858        C859   1.346       .  A
C859        C860   1.380       .  A
C859        H862   1.082       .  S
C860        C861   1.378       .  A
C860       C1851   1.433       .  S
C861        H863   1.082       .  S
N864        N865   1.324       .  A
N864        C868   1.345       .  A
N865        C866   1.344       .  A
C866        C867   1.377       .  A
C866        H869   1.082       .  S
C867        C868   1.379       .  A
C867       C1846   1.433       .  S
C868        H870   1.082       .  S
N871        N872   1.323       .  A
N871        C875   1.345       .  A
N871       Cu879   2.070       .  S
N872        C873   1.343       .  A
N872       Cu878   2.075       .  S
C873        C874   1.385       .  A
C873        H876   1.081       .  S
C874        C875   1.381       .  A
C874       C1856   1.475       .  S
C875        H877   1.082       .  S
Cu878       N881   2.074       .  S
Cu879       N889   2.070       .  S
Cu880       N882   2.068       .  S
Cu880       N888   2.069       .  S
N881        N882   1.322       .  A
N881        C885   1.346       .  A
N882        C883   1.345       .  A
C883        C884   1.379       .  A
C883        H886   1.082       .  S
C884        C885   1.381       .  A
C884       C2006   1.437       .  S
C885        H887   1.082       .  S
N888        N889   1.322       .  A
N888        C892   1.342       .  A
N889        C890   1.346       .  A
C890        C891   1.382       .  A
C890        H893   1.082       .  S
C891        C892   1.385       .  A
C891       C1848   1.476       .  S
C892        H894   1.081       .  S
N895        N896   1.322       .  A
N895        C899   1.348       .  A
N895       Cu903   2.084       .  S
N896        C897   1.343       .  A
N896       Cu902   2.067       .  S
C897        C898   1.385       .  A
C897        H900   1.081       .  S
C898        C899   1.385       .  A
C898       C1839   1.481       .  S
C899        H901   1.082       .  S
Cu902       N905   2.066       .  S
Cu903       N913   2.086       .  S
Cu904       N906   2.078       .  S
Cu904       N912   2.079       .  S
N905        N906   1.322       .  A
N905        C909   1.344       .  A
N906        C907   1.347       .  A
C907        C908   1.381       .  A
C907        H910   1.082       .  S
C908        C909   1.378       .  A
C908       C1843   1.436       .  S
C909        H911   1.082       .  S
N912        N913   1.324       .  A
N912        C916   1.346       .  A
N913        C914   1.348       .  A
C914        C915   1.382       .  A
C914        H917   1.082       .  S
C915        C916   1.380       .  A
C915       C1837   1.442       .  S
C916        H918   1.082       .  S
N919        N920   1.326       .  A
N919        C923   1.346       .  A
N919       Cu927   2.080       .  S
N920        C921   1.347       .  A
N920       Cu926   2.087       .  S
C921        C922   1.381       .  A
C921        H924   1.082       .  S
C922        C923   1.378       .  A
C922       C1829   1.440       .  S
C923        H925   1.082       .  S
Cu926       N929   2.085       .  S
Cu927       N937   2.079       .  S
Cu928       N930   2.054       .  S
Cu928       N936   2.054       .  S
N929        N930   1.322       .  A
N929        C933   1.349       .  A
N930        C931   1.341       .  A
C931        C932   1.375       .  A
C931        H934   1.082       .  S
C932        C933   1.384       .  A
C932       C1836   1.436       .  S
C933        H935   1.082       .  S
N936        N937   1.321       .  A
N936        C940   1.339   1_565  A
N937        C938   1.349   1_565  A
C938        C939   1.388       .  A
C938        H941   1.082       .  S
C939        C940   1.377       .  A
C939       C1831   1.472       .  S
C940        H942   1.082       .  S
N943        N944   1.322       .  A
N943        C947   1.349       .  A
N943       Cu951   2.085       .  S
N944        C945   1.341       .  A
N944       Cu950   2.062       .  S
C945        C946   1.378       .  A
C945        H948   1.082       .  S
C946        C947   1.388       .  A
C946       C1840   1.476       .  S
C947        H949   1.082       .  S
Cu950       N953   2.061       .  S
Cu951       N961   2.085       .  S
Cu952       N954   2.069       .  S
Cu952       N960   2.069       .  S
N953        N954   1.321       .  A
N953        C957   1.343       .  A
N954        C955   1.346       .  A
C955        C956   1.381       .  A
C955        H958   1.082       .  S
C956        C957   1.377       .  A
C956       C2042   1.434       .  S
C957        H959   1.082       .  S
N960        N961   1.323       .  A
N960        C964   1.341       .  A
N961        C962   1.348       .  A
C962        C963   1.385       .  A
C962        H965   1.082       .  S
C963        C964   1.385       .  A
C963       C1832   1.481       .  S
C964        H966   1.081       .  S
N967        C972   1.354       .  A
N967        C971   1.352       .  A
N967        H999   1.039       .  S
N968        C975   1.350       .  A
N968        C976   1.352       .  A
N969        C974   1.351       .  A
N969        C973   1.353       .  A
N969       H1000   1.038       .  S
N970        C977   1.352       .  A
N970        C978   1.351       .  A
C971        C979   1.387       .  A
C971        C987   1.413       .  A
C972        C988   1.413       .  A
C972        C980   1.387       .  A
C973        C981   1.387       .  A
C973        C990   1.412       .  A
C974        C989   1.411       .  A
C974        C982   1.387       .  A
C975        C987   1.412       .  A
C975        C983   1.387       .  A
C976        C990   1.411       .  A
C976        C984   1.387       .  A
C977        C985   1.385       .  A
C977        C988   1.411       .  A
C978        C986   1.388       .  A
C978        C989   1.413       .  A
C979        C980   1.373       .  A
C979        H991   1.082       .  S
C980        H992   1.082       .  S
C981        C982   1.377       .  A
C981        H993   1.082       .  S
C982        H994   1.082       .  S
C983        C984   1.371       .  A
C983        H995   1.083       .  S
C984        H996   1.082       .  S
C985        C986   1.371       .  A
C985        H997   1.082       .  S
C986        H998   1.082       .  S
C987       C1820   1.479       .  S
C988       C1810   1.483       .  S
C989       C1852   1.446       .  S
C990       C1835   1.450       .  S
N1001      N1002   1.319       .  A
N1001      C1005   1.347       .  A
N1001     Cu1009   2.080       .  S
N1002      C1003   1.340       .  A
N1002     Cu1008   2.054       .  S
C1003      C1004   1.383       .  A
C1003      H1006   1.082       .  S
C1004      C1005   1.390       .  A
C1004      C1800   1.481       .  S
C1005      H1007   1.082       .  S
Cu1008     N1011   2.054       .  S
Cu1009     N1019   2.082       .  S
Cu1010     N1012   2.085       .  S
Cu1010     N1018   2.087       .  S
N1011      N1012   1.319       .  A
N1011      C1015   1.339       .  A
N1012      C1013   1.349       .  A
C1013      C1014   1.393       .  A
C1013      H1016   1.081       .  S
C1014      C1015   1.385       .  A
C1014      C1813   1.487       .  S
C1015      H1017   1.080       .  S
N1018      N1019   1.326       .  A
N1018      C1022   1.346       .  A
N1019      C1020   1.347       .  A
C1020      C1021   1.379       .  A
C1020      H1023   1.082       .  S
C1021      C1022   1.380       .  A
C1021      C1982   1.440       .  S
C1022      H1024   1.082       .  S
N1025      C1030   1.352       .  A
N1025      C1029   1.353       .  A
N1025      H1057   1.041       .  S
N1026      C1033   1.351       .  A
N1026      C1034   1.351       .  A
N1027      C1032   1.351       .  A
N1027      C1031   1.350       .  A
N1027      H1058   1.038       .  S
N1028      C1035   1.348       .  A
N1028      C1036   1.350       .  A
C1029      C1037   1.387       .  A
C1029      C1045   1.412       .  A
C1030      C1046   1.411       .  A
C1030      C1038   1.387       .  A
C1031      C1039   1.388       .  A
C1031      C1048   1.410       .  A
C1032      C1047   1.409       .  A
C1032      C1040   1.387       .  A
C1033      C1045   1.413       .  A
C1033      C1041   1.386       .  A
C1034      C1048   1.411       .  A
C1034      C1042   1.387       .  A
C1035      C1043   1.386       .  A
C1035      C1046   1.406       .  A
C1036      C1044   1.387       .  A
C1036      C1047   1.409       .  A
C1037      C1038   1.373       .  A
C1037      H1049   1.082       .  S
C1038      H1050   1.082       .  S
C1039      C1040   1.376       .  A
C1039      H1051   1.082       .  S
C1040      H1052   1.082       .  S
C1041      C1042   1.372       .  A
C1041      H1053   1.082       .  S
C1042      H1054   1.082       .  S
C1043      C1044   1.371       .  A
C1043      H1055   1.083       .  S
C1044      H1056   1.082       .  S
C1045      C1780   1.487       .  S
C1046      C1790   1.474       .  S
C1047      C1860   1.444       .  S
C1048      C1777   1.445       .  S
N1059      N1060   1.319       .  A
N1059      C1063   1.351       .  A
N1059     Cu1067   2.083       .  S
N1060      C1061   1.335       .  A
N1060     Cu1066   2.043       .  S
C1061      C1062   1.381       .  A
C1061      H1064   1.081       .  S
C1062      C1063   1.393       .  A
C1062      C1783   1.482       .  S
C1063      H1065   1.082       .  S
Cu1066     N1069   2.044       .  S
Cu1067     N1077   2.086       .  S
Cu1068     N1070   2.066       .  S
Cu1068     N1076   2.069       .  S
N1069      N1070   1.317       .  A
N1069      C1073   1.337       .  A
N1070      C1071   1.346       .  A
C1071      C1072   1.391       .  A
C1071      H1074   1.081       .  S
C1072      C1073   1.385       .  A
C1072      C1823   1.482       .  S
C1073      H1075   1.080       .  S
N1076      N1077   1.326       .  A
N1076      C1080   1.344       .  A
N1077      C1078   1.346       .  A
C1078      C1079   1.379       .  A
C1078      H1081   1.082       .  S
C1079      C1080   1.375       .  A
C1079      C2066   1.433       .  S
C1080      H1082   1.082       .  S
N1083      C1088   1.352       .  A
N1083      C1087   1.352       .  A
N1083      H1115   1.042       .  S
N1084      C1091   1.347       .  A
N1084      C1092   1.350       .  A
N1085      C1090   1.349       .  A
N1085      C1089   1.351       .  A
N1085      H1116   1.040       .  S
N1086      C1093   1.350       .  A
N1086      C1094   1.349       .  A
C1087      C1095   1.387       .  A
C1087      C1103   1.412       .  A
C1088      C1104   1.412       .  A
C1088      C1096   1.387       .  A
C1089      C1097   1.387       .  A
C1089      C1106   1.409       .  A
C1090      C1105   1.408       .  A
C1090      C1098   1.387       .  A
C1091      C1103   1.408       .  A
C1091      C1099   1.386       .  A
C1092      C1106   1.408       .  A
C1092      C1100   1.386       .  A
C1093      C1101   1.385       .  A
C1093      C1104   1.409       .  A
C1094      C1102   1.388       .  A
C1094      C1105   1.410       .  A
C1095      C1096   1.376       .  A
C1095      H1107   1.082       .  S
C1096      H1108   1.082       .  S
C1097      C1098   1.379       .  A
C1097      H1109   1.082       .  S
C1098      H1110   1.082       .  S
C1099      C1100   1.373       .  A
C1099      H1111   1.082       .  S
C1100      H1112   1.082       .  S
C1101      C1102   1.374       .  A
C1101      H1113   1.082       .  S
C1102      H1114   1.082       .  S
C1103      C1768   1.481       .  S
C1104      C1803   1.486       .  S
C1105      C1765   1.443       .  S
C1106      C1844   1.448       .  S
N1117      N1118   1.319       .  A
N1117      C1121   1.345       .  A
N1117     Cu1125   2.069       .  S
N1118      C1119   1.340       .  A
N1118     Cu1124   2.051       .  S
C1119      C1120   1.384       .  A
C1119      H1122   1.082       .  S
C1120      C1121   1.387       .  A
C1120      C1771   1.477       .  S
C1121      H1123   1.081       .  S
Cu1124     N1127   2.051       .  S
Cu1125     N1135   2.071       .  S
Cu1126     N1128   2.070       .  S
Cu1126     N1134   2.072       .  S
N1127      N1128   1.320       .  A
N1127      C1131   1.337       .  A
N1128      C1129   1.345       .  A
C1129      C1130   1.389       .  A
C1129      H1132   1.081       .  S
C1130      C1131   1.384       .  A
C1130      C1793   1.480       .  S
C1131      H1133   1.080       .  S
N1134      N1135   1.324       .  A
N1134      C1138   1.346       .  A
N1135      C1136   1.343       .  A
C1136      C1137   1.377       .  A
C1136      H1139   1.082       .  S
C1137      C1138   1.379       .  A
C1137      C2083   1.434       .  S
C1138      H1140   1.082       .  S
N1141      N1142   1.321       .  A
N1141      C1145   1.346       .  A
N1141     Cu1149   2.079       .  S
N1142      C1143   1.341       .  A
N1142     Cu1148   2.055       .  S
C1143      C1144   1.378       .  A
C1143      H1146   1.082       .  S
C1144      C1145   1.388       .  A
C1144      C1761   1.473       .  S
C1145      H1147   1.081       .  S
Cu1148     N1151   2.054       .  S
Cu1149     N1159   2.080       .  S
Cu1150     N1152   2.068       .  S
Cu1150     N1158   2.069       .  S
N1151      N1152   1.321       .  A
N1151      C1155   1.340       .  A
N1152      C1153   1.346       .  A
C1153      C1154   1.381       .  A
C1153      H1156   1.082       .  S
C1154      C1155   1.376       .  A
C1154      C1766   1.429       .  S
C1155      H1157   1.082       .  S
N1158      N1159   1.325       .  A
N1158      C1162   1.343       .  A
N1159      C1160   1.347       .  A
C1160      C1161   1.380       .  A
C1160      H1163   1.082       .  S
C1161      C1162   1.376       .  A
C1161      C1759   1.434       .  S
C1162      H1164   1.082       .  S
N1165      N1166   1.326       .  A
N1165      C1169   1.348       .  A
N1165     Cu1173   2.094       .  S
N1166      C1167   1.345       .  A
N1166     Cu1172   2.074       .  S
C1167      C1168   1.377       .  A
C1167      H1170   1.082       .  S
C1168      C1169   1.382       .  A
C1168      C1753   1.441       .  S
C1169      H1171   1.082       .  S
Cu1172     N1175   2.072       .  S
Cu1173     N1183   2.092   1_455  S
Cu1174     N1176   2.050       .  S
Cu1174     N1182   2.051   1_455  S
N1175      N1176   1.320       .  A
N1175      C1179   1.346       .  A
N1176      C1177   1.342       .  A
C1177      C1178   1.376       .  A
C1177      H1180   1.082       .  S
C1178      C1179   1.381       .  A
C1178      C1778   1.431       .  S
C1179      H1181   1.082       .  S
N1182      N1183   1.322       .  A
N1182      C1186   1.339       .  A
N1183      C1184   1.351       .  A
C1184      C1185   1.390       .  A
C1184      H1187   1.082       .  S
C1185      C1186   1.375       .  A
C1185      C1755   1.473       .  S
C1186      H1188   1.082       .  S
N1189      N1190   1.322       .  A
N1189      C1193   1.344       .  A
N1189     Cu1197   2.065       .  S
N1190      C1191   1.344       .  A
N1190     Cu1196   2.074       .  S
C1191      C1192   1.386       .  A
C1191      H1194   1.082       .  S
C1192      C1193   1.380       .  A
C1192      C1762   1.474       .  S
C1193      H1195   1.082       .  S
Cu1196     N1199   2.074       .  S
Cu1197     N1207   2.065       .  S
Cu1198     N1200   2.079       .  S
Cu1198     N1206   2.080       .  S
N1199      N1200   1.323       .  A
N1199      C1203   1.345       .  A
N1200      C1201   1.347       .  A
C1201      C1202   1.381       .  A
C1201      H1204   1.082       .  S
C1202      C1203   1.379       .  A
C1202      C2018   1.439       .  S
C1203      H1205   1.082       .  S
N1206      N1207   1.322       .  A
N1206      C1210   1.344       .  A
N1207      C1208   1.345       .  A
C1208      C1209   1.381       .  A
C1208      H1211   1.082       .  S
C1209      C1210   1.388       .  A
C1209      C1756   1.479       .  S
C1210      H1212   1.081       .  S
O1213     Cu1221   2.020       .  S
O1213      C1223   1.278       .  A
O1214     Cu1221   2.019       .  S
O1214      C1224   1.277       .  A
O1215     Cu1221   2.011       .  S
O1215      C1225   1.277       .  A
O1216     Cu1221   2.014       .  S
O1216      C1226   1.277       .  A
O1217     Cu1222   2.005       .  S
O1217      C1226   1.276       .  A
O1218     Cu1222   2.002       .  S
O1218      C1225   1.275       .  A
O1219     Cu1222   2.017       .  S
O1219      C1224   1.277       .  A
O1220     Cu1222   2.019       .  S
O1220      C1223   1.278       .  A
Cu1221    Cu1222   2.379       .  S
C1223      C1750   1.443       .  S
C1224      C1838   1.441       .  S
C1225      C1854   1.432       .  S
C1226      C1751   1.435       .  S
O1227     Cu1235   2.014       .  S
O1227      C1237   1.277       .  A
O1228     Cu1235   2.017       .  S
O1228      C1238   1.278       .  A
O1229     Cu1235   2.010       .  S
O1229      C1239   1.276       .  A
O1230     Cu1235   2.008       .  S
O1230      C1240   1.276       .  A
O1231     Cu1236   2.008       .  S
O1231      C1240   1.277       .  A
O1232     Cu1236   2.013       .  S
O1232      C1239   1.277       .  A
O1233     Cu1236   2.001       .  S
O1233      C1238   1.275       .  A
O1234     Cu1236   1.998       .  S
O1234      C1237   1.275       .  A
Cu1235    Cu1236   2.380       .  S
C1237      C1845   1.431       .  S
C1238      C1746   1.435       .  S
C1239      C1747   1.437       .  S
C1240      C1760   1.433       .  S
N1241      N1242   1.322       .  A
N1241      C1245   1.350       .  A
N1241     Cu1249   2.096   1_655  S
N1242      C1243   1.343       .  A
N1242     Cu1248   2.064       .  S
C1243      C1244   1.384       .  A
C1243      H1246   1.082       .  S
C1244      C1245   1.388       .  A
C1244      C1739   1.484       .  S
C1245      H1247   1.082       .  S
Cu1248     N1251   2.063   1_655  S
Cu1249     N1259   2.097       .  S
Cu1250     N1252   2.083       .  S
Cu1250     N1258   2.084       .  S
N1251      N1252   1.322       .  A
N1251      C1255   1.343       .  A
N1252      C1253   1.348       .  A
C1253      C1254   1.384       .  A
C1253      H1256   1.082       .  S
C1254      C1255   1.377       .  A
C1254      C1743   1.438       .  S
C1255      H1257   1.082       .  S
N1258      N1259   1.325       .  A
N1258      C1262   1.347       .  A
N1259      C1260   1.350       .  A
C1260      C1261   1.384       .  A
C1260      H1263   1.082       .  S
C1261      C1262   1.380       .  A
C1261      C1749   1.446       .  S
C1262      H1264   1.082       .  S
N1265      N1266   1.322       .  A
N1265      C1269   1.349       .  A
N1265     Cu1273   2.087   1_545  S
N1266      C1267   1.342       .  A
N1266     Cu1272   2.062   1_545  S
C1267      C1268   1.384       .  A
C1267      H1270   1.081       .  S
C1268      C1269   1.386       .  A
C1268      C1733   1.481       .  S
C1269      H1271   1.082       .  S
Cu1272     N1275   2.062       .  S
Cu1273     N1283   2.088       .  S
Cu1274     N1276   2.073       .  S
Cu1274     N1282   2.074       .  S
N1275      N1276   1.321       .  A
N1275      C1279   1.343       .  A
N1276      C1277   1.347       .  A
C1277      C1278   1.382       .  A
C1277      H1280   1.082       .  S
C1278      C1279   1.377       .  A
C1278      C1737   1.435       .  S
C1279      H1281   1.082       .  S
N1282      N1283   1.325       .  A
N1282      C1286   1.345       .  A
N1283      C1284   1.348       .  A
C1284      C1285   1.382       .  A
C1284      H1287   1.082       .  S
C1285      C1286   1.377       .  A
C1285      C1748   1.439       .  S
C1286      H1288   1.082       .  S
N1289      N1290   1.323       .  A
N1289      C1293   1.350       .  A
N1289     Cu1297   2.088       .  S
N1290      C1291   1.343       .  A
N1290     Cu1296   2.071       .  S
C1291      C1292   1.380       .  A
C1291      H1294   1.082       .  S
C1292      C1293   1.388       .  A
C1292      C1740   1.479       .  S
C1293      H1295   1.082       .  S
Cu1296     N1299   2.070       .  S
Cu1297     N1307   2.088       .  S
Cu1298     N1300   2.074       .  S
Cu1298     N1306   2.075       .  S
N1299      N1300   1.322       .  A
N1299      C1303   1.345       .  A
N1300      C1301   1.347       .  A
C1301      C1302   1.381       .  A
C1301      H1304   1.082       .  S
C1302      C1303   1.379       .  A
C1302      C1930   1.437       .  S
C1303      H1305   1.082       .  S
N1306      N1307   1.324       .  A
N1306      C1310   1.343       .  A
N1307      C1308   1.348       .  A
C1308      C1309   1.386       .  A
C1308      H1311   1.082       .  S
C1309      C1310   1.380       .  A
C1309      C1734   1.477       .  S
C1310      H1312   1.082       .  S
N1313      N1314   1.321       .  A
N1313      C1317   1.348       .  A
N1313     Cu1321   2.082       .  S
N1314      C1315   1.342       .  A
N1314     Cu1320   2.063       .  S
C1315      C1316   1.384       .  A
C1315      H1318   1.081       .  S
C1316      C1317   1.386       .  A
C1316      C1727   1.480       .  S
C1317      H1319   1.082       .  S
Cu1320     N1323   2.063       .  S
Cu1321     N1331   2.082       .  S
Cu1322     N1324   2.077       .  S
Cu1322     N1330   2.078       .  S
N1323      N1324   1.322       .  A
N1323      C1327   1.343       .  A
N1324      C1325   1.348       .  A
C1325      C1326   1.382       .  A
C1325      H1328   1.082       .  S
C1326      C1327   1.377       .  A
C1326      C1731   1.436       .  S
C1327      H1329   1.082       .  S
N1330      N1331   1.325       .  A
N1330      C1334   1.345       .  A
N1331      C1332   1.347       .  A
C1332      C1333   1.380       .  A
C1332      H1335   1.082       .  S
C1333      C1334   1.378       .  A
C1333      C1752   1.437       .  S
C1334      H1336   1.082       .  S
N1337      N1338   1.323       .  A
N1337      C1341   1.350       .  A
N1337     Cu1345   2.092   1_545  S
N1338      C1339   1.341       .  A
N1338     Cu1344   2.061   1_545  S
C1339      C1340   1.377       .  A
C1339      H1342   1.082       .  S
C1340      C1341   1.389       .  A
C1340      C1721   1.475       .  S
C1341      H1343   1.082       .  S
Cu1344     N1347   2.060       .  S
Cu1345     N1355   2.093       .  S
Cu1346     N1348   2.073       .  S
Cu1346     N1354   2.074       .  S
N1347      N1348   1.321       .  A
N1347      C1351   1.343       .  A
N1348      C1349   1.347       .  A
C1349      C1350   1.382       .  A
C1349      H1352   1.082       .  S
C1350      C1351   1.377       .  A
C1350      C1725   1.434       .  S
C1351      H1353   1.082       .  S
N1354      N1355   1.325       .  A
N1354      C1358   1.344       .  A
N1355      C1356   1.350       .  A
C1356      C1357   1.384       .  A
C1356      H1359   1.082       .  S
C1357      C1358   1.377       .  A
C1357      C1719   1.441       .  S
C1358      H1360   1.082       .  S
N1361      N1362   1.323       .  A
N1361      C1365   1.347       .  A
N1361     Cu1369   2.075       .  S
N1362      C1363   1.345       .  A
N1362     Cu1368   2.084       .  S
C1363      C1364   1.382       .  A
C1363      H1366   1.082       .  S
C1364      C1365   1.385       .  A
C1364      C1728   1.477       .  S
C1365      H1367   1.082       .  S
Cu1368     N1371   2.084       .  S
Cu1369     N1379   2.075       .  S
Cu1370     N1372   2.076       .  S
Cu1370     N1378   2.076       .  S
N1371      N1372   1.323       .  A
N1371      C1375   1.348       .  A
N1372      C1373   1.347       .  A
C1373      C1374   1.381       .  A
C1373      H1376   1.082       .  S
C1374      C1375   1.383       .  A
C1374      C1871   1.443       .  S
C1375      H1377   1.082       .  S
N1378      N1379   1.322       .  A
N1378      C1382   1.344       .  A
N1379      C1380   1.347       .  A
C1380      C1381   1.383       .  A
C1380      H1383   1.082       .  S
C1381      C1382   1.386       .  A
C1381      C1722   1.480       .  S
C1382      H1384   1.081       .  S
N1385      N1386   1.319       .  A
N1385      C1389   1.349       .  A
N1385     Cu1393   2.078       .  S
N1386      C1387   1.339       .  A
N1386     Cu1392   2.054       .  S
C1387      C1388   1.384       .  A
C1387      H1390   1.081       .  S
C1388      C1389   1.391       .  A
C1388      C1710   1.483       .  S
C1389      H1391   1.082       .  S
Cu1392     N1395   2.054       .  S
Cu1393     N1403   2.080   1_554  S
Cu1394     N1396   2.086       .  S
Cu1394     N1402   2.088   1_554  S
N1395      N1396   1.320       .  A
N1395      C1399   1.339       .  A
N1396      C1397   1.350       .  A
C1397      C1398   1.392       .  A
C1397      H1400   1.082       .  S
C1398      C1399   1.383       .  A
C1398      C1700   1.483       .  S
C1399      H1401   1.081       .  S
N1402      N1403   1.327       .  A
N1402      C1406   1.347       .  A
N1403      C1404   1.345       .  A
C1404      C1405   1.377       .  A
C1404      H1407   1.082       .  S
C1405      C1406   1.380       .  A
C1405      C1861   1.438       .  S
C1406      H1408   1.082       .  S
N1409      C1414   1.353       .  A
N1409      C1413   1.353       .  A
N1409      H1441   1.041       .  S
N1410      C1417   1.352       .  A
N1410      C1418   1.352       .  A
N1411      C1416   1.353       .  A
N1411      C1415   1.353       .  A
N1411      H1442   1.039       .  S
N1412      C1419   1.350       .  A
N1412      C1420   1.351       .  A
C1413      C1421   1.386       .  A
C1413      C1429   1.412       .  A
C1414      C1430   1.415       .  A
C1414      C1422   1.388       .  A
C1415      C1423   1.387       .  A
C1415      C1432   1.413       .  A
C1416      C1431   1.413       .  A
C1416      C1424   1.387       .  A
C1417      C1429   1.412       .  A
C1417      C1425   1.386       .  A
C1418      C1432   1.412       .  A
C1418      C1426   1.387       .  A
C1419      C1427   1.386       .  A
C1419      C1430   1.411       .  A
C1420      C1428   1.387       .  A
C1420      C1431   1.411       .  A
C1421      C1422   1.375       .  A
C1421      H1433   1.082       .  S
C1422      H1434   1.082       .  S
C1423      C1424   1.379       .  A
C1423      H1435   1.082       .  S
C1424      H1436   1.082       .  S
C1425      C1426   1.370       .  A
C1425      H1437   1.082       .  S
C1426      H1438   1.082       .  S
C1427      C1428   1.373       .  A
C1427      H1439   1.082       .  S
C1428      H1440   1.082       .  S
C1429      C1713   1.485       .  S
C1430      C1693   1.485       .  S
C1431      C1744   1.451       .  S
C1432      C1687   1.451       .  S
N1443      N1444   1.319       .  A
N1443      C1447   1.345       .  A
N1443     Cu1451   2.070       .  S
N1444      C1445   1.340       .  A
N1444     Cu1450   2.056       .  S
C1445      C1446   1.386       .  A
C1445      H1448   1.081       .  S
C1446      C1447   1.389       .  A
C1446      C1668   1.483       .  S
C1447      H1449   1.081       .  S
Cu1450     N1453   2.056       .  S
Cu1451     N1461   2.072   1_554  S
Cu1452     N1454   2.083       .  S
Cu1452     N1460   2.084   1_554  S
N1453      N1454   1.320       .  A
N1453      C1457   1.340       .  A
N1454      C1455   1.348       .  A
C1455      C1456   1.391       .  A
C1455      H1458   1.081       .  S
C1456      C1457   1.385       .  A
C1456      C1678   1.485       .  S
C1457      H1459   1.081       .  S
N1460      N1461   1.325       .  A
N1460      C1464   1.347       .  A
N1461      C1462   1.345       .  A
C1462      C1463   1.378       .  A
C1462      H1465   1.082       .  S
C1463      C1464   1.381       .  A
C1463      C1908   1.438       .  S
C1464      H1466   1.082       .  S
N1467      C1472   1.353       .  A
N1467      C1471   1.354       .  A
N1467      H1499   1.041       .  S
N1468      C1475   1.350       .  A
N1468      C1476   1.351       .  A
N1469      C1474   1.351       .  A
N1469      C1473   1.351       .  A
N1469      H1500   1.040       .  S
N1470      C1477   1.349       .  A
N1470      C1478   1.351       .  A
C1471      C1479   1.387       .  A
C1471      C1487   1.416       .  A
C1472      C1488   1.415       .  A
C1472      C1480   1.387       .  A
C1473      C1481   1.387       .  A
C1473      C1490   1.409       .  A
C1474      C1489   1.410       .  A
C1474      C1482   1.387       .  A
C1475      C1487   1.411       .  A
C1475      C1483   1.386       .  A
C1476      C1490   1.409       .  A
C1476      C1484   1.387       .  A
C1477      C1485   1.387       .  A
C1477      C1488   1.412       .  A
C1478      C1486   1.386       .  A
C1478      C1489   1.410       .  A
C1479      C1480   1.377       .  A
C1479      H1491   1.082       .  S
C1480      H1492   1.082       .  S
C1481      C1482   1.378       .  A
C1481      H1493   1.082       .  S
C1482      H1494   1.082       .  S
C1483      C1484   1.372       .  A
C1483      H1495   1.082       .  S
C1484      H1496   1.082       .  S
C1485      C1486   1.372       .  A
C1485      H1497   1.082       .  S
C1486      H1498   1.082       .  S
C1487      C1703   1.490       .  S
C1488      C1671   1.484       .  S
C1489      C1738   1.448       .  S
C1490      C1726   1.447       .  S
N1501      C1506   1.354       .  A
N1501      C1505   1.353       .  A
N1501      H1533   1.040       .  S
N1502      C1509   1.351       .  A
N1502      C1510   1.352       .  A
N1503      C1508   1.352       .  A
N1503      C1507   1.353       .  A
N1503      H1534   1.038       .  S
N1504      C1511   1.351       .  A
N1504      C1512   1.351       .  A
C1505      C1513   1.388       .  A
C1505      C1521   1.415       .  A
C1506      C1522   1.414       .  A
C1506      C1514   1.386       .  A
C1507      C1515   1.387       .  A
C1507      C1524   1.414       .  A
C1508      C1523   1.413       .  A
C1508      C1516   1.387       .  A
C1509      C1521   1.412       .  A
C1509      C1517   1.386       .  A
C1510      C1524   1.412       .  A
C1510      C1518   1.387       .  A
C1511      C1519   1.386       .  A
C1511      C1522   1.410       .  A
C1512      C1520   1.388       .  A
C1512      C1523   1.412       .  A
C1513      C1514   1.374       .  A
C1513      H1525   1.082       .  S
C1514      H1526   1.082       .  S
C1515      C1516   1.379       .  A
C1515      H1527   1.082       .  S
C1516      H1528   1.082       .  S
C1517      C1518   1.371       .  A
C1517      H1529   1.082       .  S
C1518      H1530   1.082       .  S
C1519      C1520   1.371       .  A
C1519      H1531   1.082       .  S
C1520      H1532   1.082       .  S
C1521      C1681   1.486       .  S
C1522      C1658   1.485       .  S
C1523      C1732   1.450       .  S
C1524      C1655   1.451       .  S
N1535      N1536   1.320       .  A
N1535      C1539   1.345       .  A
N1535     Cu1543   2.069       .  S
N1536      C1537   1.341       .  A
N1536     Cu1542   2.065       .  S
C1537      C1538   1.386       .  A
C1537      H1540   1.081       .  S
C1538      C1539   1.388       .  A
C1538      C1690   1.483       .  S
C1539      H1541   1.081       .  S
Cu1542     N1545   2.066       .  S
Cu1543     N1553   2.069   1_554  S
Cu1544     N1546   2.073       .  S
Cu1544     N1552   2.074   1_554  S
N1545      N1546   1.320       .  A
N1545      C1549   1.343       .  A
N1546      C1547   1.344       .  A
C1547      C1548   1.389       .  A
C1547      H1550   1.081       .  S
C1548      C1549   1.389       .  A
C1548      C1661   1.487       .  S
C1549      H1551   1.081       .  S
N1552      N1553   1.323       .  A
N1552      C1556   1.346       .  A
N1553      C1554   1.344       .  A
C1554      C1555   1.377       .  A
C1554      H1557   1.082       .  S
C1555      C1556   1.380       .  A
C1555      C1955   1.436       .  S
C1556      H1558   1.082       .  S
N1559      N1560   1.321       .  A
N1559      C1563   1.347       .  A
N1559     Cu1567   2.077       .  S
N1560      C1561   1.341       .  A
N1560     Cu1566   2.062       .  S
C1561      C1562   1.384       .  A
C1561      H1564   1.081       .  S
C1562      C1563   1.385       .  A
C1562      C1652   1.478       .  S
C1563      H1565   1.082       .  S
Cu1566     N1569   2.062       .  S
Cu1567     N1577   2.078       .  S
Cu1568     N1570   2.082       .  S
Cu1568     N1576   2.082       .  S
N1569      N1570   1.322       .  A
N1569      C1573   1.343       .  A
N1570      C1571   1.348       .  A
C1571      C1572   1.383       .  A
C1571      H1574   1.082       .  S
C1572      C1573   1.377       .  A
C1572      C1656   1.437       .  S
C1573      H1575   1.082       .  S
N1576      N1577   1.325       .  A
N1576      C1580   1.346       .  A
N1577      C1578   1.346       .  A
C1578      C1579   1.379       .  A
C1578      H1581   1.082       .  S
C1579      C1580   1.379       .  A
C1579      C1745   1.438       .  S
C1580      H1582   1.082       .  S
N1583      N1584   1.326       .  A
N1583      C1587   1.347       .  A
N1583     Cu1591   2.084       .  S
N1584      C1585   1.346       .  A
N1584     Cu1590   2.083       .  S
C1585      C1586   1.379       .  A
C1585      H1588   1.082       .  S
C1586      C1587   1.380       .  A
C1586      C1645   1.440       .  S
C1587      H1589   1.082       .  S
Cu1590     N1593   2.081       .  S
Cu1591     N1601   2.082   1_455  S
Cu1592     N1594   2.062       .  S
Cu1592     N1600   2.061   1_455  S
N1593      N1594   1.321       .  A
N1593      C1597   1.348       .  A
N1594      C1595   1.343       .  A
C1595      C1596   1.378       .  A
C1595      H1598   1.082       .  S
C1596      C1597   1.383       .  A
C1596      C1688   1.438       .  S
C1597      H1599   1.082       .  S
N1600      N1601   1.322       .  A
N1600      C1604   1.340       .  A
N1601      C1602   1.350       .  A
C1602      C1603   1.388       .  A
C1602      H1605   1.082       .  S
C1603      C1604   1.377       .  A
C1603      C1647   1.473       .  S
C1604      H1606   1.082       .  S
N1607      N1608   1.323       .  A
N1607      C1611   1.346       .  A
N1607     Cu1615   2.077       .  S
N1608      C1609   1.343       .  A
N1608     Cu1614   2.071       .  S
C1609      C1610   1.380       .  A
C1609      H1612   1.082       .  S
C1610      C1611   1.386       .  A
C1610      C1651   1.474       .  S
C1611      H1613   1.081       .  S
Cu1614     N1617   2.070       .  S
Cu1615     N1625   2.077       .  S
Cu1616     N1618   2.071       .  S
Cu1616     N1624   2.072       .  S
N1617      N1618   1.322       .  A
N1617      C1621   1.345       .  A
N1618      C1619   1.346       .  A
C1619      C1620   1.380       .  A
C1619      H1622   1.082       .  S
C1620      C1621   1.379       .  A
C1620      C1894   1.436       .  S
C1621      H1623   1.082       .  S
N1624      N1625   1.322       .  A
N1624      C1628   1.342       .  A
N1625      C1626   1.347       .  A
C1626      C1627   1.384       .  A
C1626      H1629   1.082       .  S
C1627      C1628   1.386       .  A
C1627      C1648   1.481       .  S
C1628      H1630   1.081       .  S
O1631     Cu1639   2.003       .  S
O1631      C1641   1.275       .  A
O1632     Cu1639   2.004       .  S
O1632      C1642   1.275       .  A
O1633     Cu1639   2.016       .  S
O1633      C1643   1.278       .  A
O1634     Cu1639   2.017       .  S
O1634      C1644   1.278       .  A
O1635     Cu1640   2.014       .  S
O1635      C1644   1.276       .  A
O1636     Cu1640   2.015       .  S
O1636      C1643   1.277       .  A
O1637     Cu1640   2.023       .  S
O1637      C1642   1.278       .  A
O1638     Cu1640   2.023       .  S
O1638      C1641   1.278       .  A
Cu1639    Cu1640   2.378       .  S
C1641      C1830   1.438       .  S
C1642      C1646   1.438       .  S
C1643      C1720   1.440       .  S
C1644      C1754   1.439       .  S
C1645      C1646   1.208       .  T
C1647      C1648   1.342       .  D
C1647      H1649   1.085       .  S
C1648      H1650   1.086       .  S
C1651      C1652   1.344       .  D
C1651      H1653   1.085       .  S
C1652      H1654   1.085       .  S
C1655      C1656   1.207       .  T
C1657      C1658   1.401       .  A
C1657      C1662   1.399       .  A
C1657      H1663   1.083       .  S
C1658      C1659   1.402       .  A
C1659      C1660   1.396       .  A
C1659      H1664   1.083       .  S
C1660      C1661   1.407       .  A
C1660      H1665   1.081       .  S
C1661      C1662   1.409       .  A
C1662      H1666   1.081       .  S
C1667      C1668   1.408       .  A
C1667      C1672   1.399       .  A
C1667      H1673   1.081       .  S
C1668      C1669   1.406       .  A
C1669      C1670   1.392       .  A
C1669      H1674   1.081       .  S
C1670      C1671   1.401       .  A
C1670      H1675   1.083       .  S
C1671      C1672   1.402       .  A
C1672      H1676   1.083       .  S
C1677      C1678   1.407       .  A
C1677      C1682   1.393       .  A
C1677      H1683   1.081       .  S
C1678      C1679   1.408       .  A
C1679      C1680   1.401       .  A
C1679      H1684   1.081       .  S
C1680      C1681   1.403       .  A
C1680      H1685   1.083       .  S
C1681      C1682   1.401       .  A
C1682      H1686   1.083       .  S
C1687      C1688   1.207       .  T
C1689      C1690   1.406       .  A
C1689      C1694   1.393       .  A
C1689      H1695   1.081       .  S
C1690      C1691   1.408       .  A
C1691      C1692   1.399       .  A
C1691      H1696   1.081       .  S
C1692      C1693   1.402       .  A
C1692      H1697   1.083       .  S
C1693      C1694   1.401       .  A
C1694      H1698   1.083       .  S
C1699      C1700   1.406       .  A
C1699      C1704   1.393       .  A
C1699      H1705   1.082       .  S
C1700      C1701   1.407       .  A
C1701      C1702   1.403       .  A
C1701      H1706   1.082       .  S
C1702      C1703   1.405       .  A
C1702      H1707   1.083       .  S
C1703      C1704   1.403       .  A
C1704      H1708   1.083       .  S
C1709      C1710   1.406       .  A
C1709      C1714   1.392       .  A
C1709      H1715   1.081       .  S
C1710      C1711   1.408       .  A
C1711      C1712   1.402       .  A
C1711      H1716   1.082       .  S
C1712      C1713   1.404       .  A
C1712      H1717   1.083       .  S
C1713      C1714   1.400       .  A
C1714      H1718   1.083       .  S
C1719      C1720   1.209       .  T
C1721      C1722   1.342       .  D
C1721      H1723   1.086       .  S
C1722      H1724   1.086       .  S
C1725      C1726   1.205       .  T
C1727      C1728   1.346       .  D
C1727      H1729   1.085       .  S
C1728      H1730   1.085       .  S
C1731      C1732   1.206       .  T
C1733      C1734   1.345       .  D
C1733      H1735   1.086       .  S
C1734      H1736   1.085       .  S
C1737      C1738   1.205       .  T
C1739      C1740   1.345       .  D
C1739      H1741   1.086       .  S
C1740      H1742   1.086       .  S
C1743      C1744   1.207       .  T
C1745      C1746   1.206       .  T
C1747      C1748   1.207       .  T
C1749      C1750   1.211       .  T
C1751      C1752   1.206       .  T
C1753      C1754   1.208       .  T
C1755      C1756   1.340       .  D
C1755      H1757   1.085       .  S
C1756      H1758   1.086       .  S
C1759      C1760   1.204       .  T
C1761      C1762   1.341       .  D
C1761      H1763   1.086       .  S
C1762      H1764   1.086       .  S
C1765      C1766   1.202       .  T
C1767      C1768   1.402       .  A
C1767      C1772   1.399       .  A
C1767      H1773   1.083       .  S
C1768      C1769   1.401       .  A
C1769      C1770   1.391       .  A
C1769      H1774   1.084       .  S
C1770      C1771   1.404       .  A
C1770      H1775   1.082       .  S
C1771      C1772   1.407       .  A
C1772      H1776   1.082       .  S
C1777      C1778   1.203       .  T
C1779      C1780   1.406       .  A
C1779      C1784   1.402       .  A
C1779      H1785   1.083       .  S
C1780      C1781   1.400       .  A
C1781      C1782   1.390       .  A
C1781      H1786   1.083       .  S
C1782      C1783   1.407       .  A
C1782      H1787   1.081       .  S
C1783      C1784   1.406       .  A
C1784      H1788   1.082       .  S
C1789      C1790   1.397       .  A
C1789      C1794   1.389       .  A
C1789      H1795   1.084       .  S
C1790      C1791   1.400       .  A
C1791      C1792   1.398       .  A
C1791      H1796   1.083       .  S
C1792      C1793   1.408       .  A
C1792      H1797   1.081       .  S
C1793      C1794   1.407       .  A
C1794      H1798   1.080       .  S
C1799      C1800   1.407       .  A
C1799      C1804   1.396       .  A
C1799      H1805   1.082       .  S
C1800      C1801   1.405       .  A
C1801      C1802   1.399       .  A
C1801      H1806   1.082       .  S
C1802      C1803   1.403       .  A
C1802      H1807   1.083       .  S
C1803      C1804   1.402       .  A
C1804      H1808   1.083       .  S
C1809      C1810   1.398       .  A
C1809      C1814   1.393       .  A
C1809      H1815   1.084       .  S
C1810      C1811   1.402       .  A
C1811      C1812   1.402       .  A
C1811      H1816   1.083       .  S
C1812      C1813   1.408       .  A
C1812      H1817   1.082       .  S
C1813      C1814   1.408       .  A
C1814      H1818   1.080       .  S
C1819      C1820   1.398       .  A
C1819      C1824   1.390       .  A
C1819      H1825   1.084       .  S
C1820      C1821   1.401       .  A
C1821      C1822   1.399       .  A
C1821      H1826   1.083       .  S
C1822      C1823   1.408       .  A
C1822      H1827   1.081       .  S
C1823      C1824   1.407       .  A
C1824      H1828   1.080       .  S
C1829      C1830   1.207       .  T
C1831      C1832   1.343       .  D
C1831      H1833   1.084       .  S
C1832      H1834   1.086       .  S
C1835      C1836   1.206       .  T
C1837      C1838   1.209       .  T
C1839      C1840   1.343       .  D
C1839      H1841   1.086       .  S
C1840      H1842   1.085       .  S
C1843      C1844   1.205       .  T
C1845      C1846   1.204       .  T
C1847      C1848   1.342       .  D
C1847      H1849   1.085       .  S
C1848      H1850   1.086       .  S
C1851      C1852   1.204       .  T
C1853      C1854   1.204       .  T
C1855      C1856   1.342       .  D
C1855      H1857   1.085       .  S
C1856      H1858   1.086       .  S
C1859      C1860   1.202       .  T
C1861      C1862   1.206       .  T
C1863      C1864   1.343       .  D
C1863      H1865   1.086       .  S
C1864      H1866   1.086       .  S
C1867      C1868   1.339       .  D
C1867      H1869   1.086       .  S
C1868      H1870   1.086       .  S
C1871      C1872   1.210       .  T
C1873      C1874   1.402       .  A
C1873      C1878   1.401       .  A
C1873      H1879   1.083       .  S
C1874      C1875   1.400       .  A
C1875      C1876   1.394       .  A
C1875      H1880   1.083       .  S
C1876      C1877   1.408       .  A
C1876      H1881   1.080       .  S
C1877      C1878   1.408       .  A
C1878      H1882   1.081       .  S
C1883      C1884   1.406       .  A
C1883      C1888   1.402       .  A
C1883      H1889   1.083       .  S
C1884      C1885   1.404       .  A
C1885      C1886   1.391       .  A
C1885      H1890   1.082       .  S
C1886      C1887   1.400       .  A
C1886      H1891   1.083       .  S
C1887      C1888   1.404       .  A
C1888      H1892   1.083       .  S
C1893      C1894   1.205       .  T
C1895      C1896   1.207       .  T
C1897      C1898   1.405       .  A
C1897      C1902   1.404       .  A
C1897      H1903   1.083       .  S
C1898      C1899   1.401       .  A
C1899      C1900   1.394       .  A
C1899      H1904   1.083       .  S
C1900      C1901   1.407       .  A
C1900      H1905   1.082       .  S
C1901      C1902   1.408       .  A
C1902      H1906   1.082       .  S
C1907      C1908   1.206       .  T
C1909      C1910   1.344       .  D
C1909      H1911   1.086       .  S
C1910      H1912   1.086       .  S
C1913      C1914   1.207       .  T
C1915      C1916   1.346       .  D
C1915      H1917   1.085       .  S
C1916      H1918   1.085       .  S
C1919      C1920   1.408       .  A
C1919      C1924   1.403       .  A
C1919      H1925   1.082       .  S
C1920      C1921   1.407       .  A
C1921      C1922   1.393       .  A
C1921      H1926   1.081       .  S
C1922      C1923   1.401       .  A
C1922      H1927   1.084       .  S
C1923      C1924   1.404       .  A
C1924      H1928   1.083       .  S
C1929      C1930   1.206       .  T
C1931      C1932   1.204       .  T
C1933      C1934   1.404       .  A
C1933      C1938   1.402       .  A
C1933      H1939   1.083       .  S
C1934      C1935   1.401       .  A
C1935      C1936   1.396       .  A
C1935      H1940   1.083       .  S
C1936      C1937   1.408       .  A
C1936      H1941   1.082       .  S
C1937      C1938   1.407       .  A
C1938      H1942   1.082       .  S
C1943      C1944   1.206       .  T
C1945      C1946   1.401       .  A
C1945      C1950   1.399       .  A
C1945      H1951   1.083       .  S
C1946      C1947   1.398       .  A
C1947      C1948   1.393       .  A
C1947      H1952   1.083       .  S
C1948      C1949   1.408       .  A
C1948      H1953   1.081       .  S
C1949      C1950   1.407       .  A
C1950      H1954   1.082       .  S
C1955      C1956   1.205       .  T
C1957      C1958   1.343       .  D
C1957      H1959   1.086       .  S
C1958      H1960   1.085       .  S
C1961      C1962   1.208       .  T
C1963      C1964   1.343       .  D
C1963      H1965   1.086       .  S
C1964      H1966   1.085       .  S
C1967      C1968   1.206       .  T
C1969      C1970   1.205       .  T
C1971      C1972   1.205       .  T
C1973      C1974   1.209       .  T
C1975      C1976   1.203       .  T
C1977      C1978   1.208       .  T
C1979      C1980   1.209       .  T
C1981      C1982   1.207       .  T
C1983      C1984   1.210       .  T
C1985      C1986   1.342       .  D
C1985      H1987   1.085       .  S
C1986      H1988   1.086       .  S
C1989      C1990   1.202       .  T
C1991      C1992   1.342       .  D
C1991      H1993   1.086       .  S
C1992      H1994   1.085       .  S
C1995      C1996   1.408       .  A
C1995      C2000   1.402       .  A
C1995      H2001   1.082       .  S
C1996      C1997   1.407       .  A
C1997      C1998   1.394       .  A
C1997      H2002   1.081       .  S
C1998      C1999   1.401       .  A
C1998      H2003   1.083       .  S
C1999      C2000   1.404       .  A
C2000      H2004   1.083       .  S
C2005      C2006   1.206       .  T
C2007      C2008   1.405       .  A
C2007      C2012   1.402       .  A
C2007      H2013   1.083       .  S
C2008      C2009   1.401       .  A
C2009      C2010   1.395       .  A
C2009      H2014   1.083       .  S
C2010      C2011   1.407       .  A
C2010      H2015   1.082       .  S
C2011      C2012   1.406       .  A
C2012      H2016   1.082       .  S
C2017      C2018   1.207       .  T
C2019      C2020   1.208       .  T
C2021      C2022   1.404       .  A
C2021      C2026   1.403       .  A
C2021      H2027   1.083       .  S
C2022      C2023   1.399       .  A
C2023      C2024   1.391       .  A
C2023      H2028   1.084       .  S
C2024      C2025   1.406       .  A
C2024      H2029   1.081       .  S
C2025      C2026   1.407       .  A
C2026      H2030   1.082       .  S
C2031      C2032   1.407       .  A
C2031      C2036   1.394       .  A
C2031      H2037   1.082       .  S
C2032      C2033   1.406       .  A
C2033      C2034   1.401       .  A
C2033      H2038   1.082       .  S
C2034      C2035   1.404       .  A
C2034      H2039   1.083       .  S
C2035      C2036   1.402       .  A
C2036      H2040   1.083       .  S
C2041      C2042   1.204       .  T
C2043      C2044   1.203       .  T
C2045      C2046   1.399       .  A
C2045      C2050   1.390       .  A
C2045      H2051   1.084       .  S
C2046      C2047   1.404       .  A
C2047      C2048   1.403       .  A
C2047      H2052   1.083       .  S
C2048      C2049   1.407       .  A
C2048      H2053   1.082       .  S
C2049      C2050   1.406       .  A
C2050      H2054   1.081       .  S
C2055      C2056   1.408       .  A
C2055      C2060   1.400       .  A
C2055      H2061   1.082       .  S
C2056      C2057   1.407       .  A
C2057      C2058   1.391       .  A
C2057      H2062   1.081       .  S
C2058      C2059   1.400       .  A
C2058      H2063   1.084       .  S
C2059      C2060   1.402       .  A
C2060      H2064   1.083       .  S
C2065      C2066   1.204       .  T
C2067      C2068   1.206       .  T
C2069      C2070   1.342       .  D
C2069      H2071   1.085       .  S
C2070      H2072   1.086       .  S
C2073      C2074   1.207       .  T
C2075      C2076   1.209       .  T
C2077      C2078   1.343       .  D
C2077      H2079   1.085       .  S
C2078      H2080   1.086       .  S
C2081      C2082   1.209       .  T
C2083      C2084   1.204       .  T
C2085      C2086   1.208       .  T
C2087      C2088   1.343       .  D
C2087      H2089   1.086       .  S
C2088      H2090   1.085       .  S
C2091      C2092   1.208       .  T
C2093      C2094   1.206       .  T
C2095      C2096   1.344       .  D
C2095      H2097   1.086       .  S
C2096      H2098   1.084       .  S
C2099      C2100   1.206       .  T
