geometry optimzed in LAMMPS
_audit_creation_date              2020-11-30 
_audit_creation_method            'lammps2cif' 
_symmetry_space_group_name_H-M    'P1' 
_symmetry_Int_Tables_number       1 
_symmetry_cell_setting            triclinic 
loop_ 
_symmetry_equiv_pos_as_xyz 
  x,y,z 
_cell_length_a                    39.07035294 
_cell_length_b                    37.0891268788041 
_cell_length_c                    38.119047098075384 
_cell_angle_alpha                 91.72463738917946 
_cell_angle_beta                  93.40150630217525 
_cell_angle_gamma                 89.18759472085459 
loop_ 
_atom_site_label 
_atom_site_type_symbol 
_atom_site_fract_x 
_atom_site_fract_y 
_atom_site_fract_z 
_atom_site_charge 
Zr1        Zr  0.76957257  0.71090463  0.68058638     2.17500
O2          O  0.76154813  0.67035917  0.62930086    -0.52000
O3          O  0.83077182  0.71924786  0.67426670    -0.75200
O4          O  0.76559403  0.74725853  0.62588660    -0.82000
O5          O  0.79760637  0.64521077  0.75065435    -0.83700
O6          O  0.73164170  0.79614463  0.63662144    -0.79400
O7          O  0.78965462  0.64902787  0.69159825    -0.91000
O8          O  0.84952924  0.76491037  0.71081121    -0.77000
O9          O  0.77312612  0.77361781  0.69405684    -0.86400
O10         O  0.79840875  0.71772401  0.73743890    -0.86100
O11         O  0.71062789  0.73095216  0.68026186    -0.72900
O12         O  0.73485653  0.68173991  0.72160827    -0.85000
Zr13       Zr  0.70909066  0.77258737  0.79371120     2.26400
Zr14       Zr  0.71507420  0.79336490  0.69595735     2.06300
Zr15       Zr  0.76349089  0.69033162  0.77833410     2.10000
Zr16       Zr  0.80273524  0.78013470  0.74995094     1.78800
O17         O  0.73241361  0.63577573  0.78906577    -0.93800
O18         O  0.81722346  0.83663308  0.72356456    -0.41600
O19         O  0.76833156  0.75306925  0.79275166    -0.78300
O20         O  0.74451513  0.80177793  0.75267308    -0.97000
O21         O  0.68001705  0.76601873  0.73675585    -0.90300
O22         O  0.70552652  0.71006736  0.77930082    -0.93100
C23         C  0.85420820  0.74118820  0.68598780     1.00600
C24         C  0.80103987  0.63284673  0.71946207     1.13600
C25         C  0.75050216  0.77725684  0.61675688     1.04400
O26         O  0.72709447  0.85393821  0.67736843    -0.95300
O27         O  0.68843520  0.84330981  0.72332473    -0.91000
O28         O  0.68225164  0.83187502  0.78099547    -0.84100
C29         C  0.67828118  0.85158320  0.75360601     1.11000
O30         O  0.66529581  0.65912571  0.67491941    -0.97200
Zr31       Zr  0.67662734  0.70335059  0.72272316     1.88900
O32         O  0.64966610  0.75654103  0.80375981    -0.73900
O33         O  0.66058495  0.79332645  0.66137509    -0.53100
O34         O  0.62934751  0.72664811  0.68492809    -0.97800
O35         O  0.66084823  0.64338626  0.74011273    -0.55000
O36         O  0.63071725  0.71371421  0.76339510    -0.74400
C37         C  0.62661155  0.73484125  0.79030589     0.97900
O38         O  0.71465399  0.81743607  0.84166044    -0.63200
O39         O  0.81415677  0.67654210  0.81618260    -0.58000
O40         O  0.71967778  0.74154070  0.85165468    -0.94700
O41         O  0.75481904  0.69389460  0.84047579    -0.93100
O42         O  0.84894814  0.75936362  0.79037979    -0.93500
O43         O  0.81865505  0.82768755  0.79308006    -0.92300
C44         C  0.73756507  0.71337904  0.86159363     1.16800
H45         H  0.82094287  0.70667629  0.73841535     0.32700
H46         H  0.74574171  0.82713680  0.75872403     0.43600
H47         H  0.69367870  0.69744848  0.79675664     0.37100
H48         H  0.69996946  0.72754467  0.65690800     0.33600
H49         H  0.81261087  0.83245308  0.69795398     0.25400
H50         H  0.65919228  0.81750622  0.65102759     0.31300
H51         H  0.61341804  0.73854513  0.70102098     0.37200
H52         H  0.86714193  0.77755877  0.78946537     0.31700
H53         H  0.81337693  0.65023823  0.81976003     0.30600
H54         H  0.73425945  0.63297809  0.81485464     0.32200
H55         H  0.63546082  0.64372950  0.73902717     0.31200
H56         H  0.80470959  0.82306933  0.81329433     0.35200
H57         H  0.69911698  0.80943853  0.85941718     0.27900
H58         H  0.77667016  0.67942676  0.61167403     0.32200
H59         H  0.64004786  0.65854445  0.67083145     0.35000
H60         H  0.83393006  0.67980888  0.80155384     0.27600
H61         H  0.73805484  0.81365229  0.85245564     0.40500
H62         H  0.75238083  0.85573797  0.67955564     0.30600
H63         H  0.79918996  0.85406316  0.73035994     0.38200
H64         H  0.66753476  0.64261914  0.76551865     0.30000
H65         H  0.66394581  0.77673506  0.64102269     0.30100
H66         H  0.73797034  0.67556396  0.61965233     0.30400
C67         C  0.61564410  0.99627979  0.74584654    -0.03200
Zr68       Zr  0.69840930  0.22201794  0.77125689     2.17500
O69         O  0.65579218  0.24080034  0.81239119    -0.52000
O70         O  0.68252960  0.15929441  0.76063666    -0.75200
O71         O  0.64087463  0.22362201  0.74155313    -0.82000
O72         O  0.76926929  0.21501337  0.84271006    -0.83700
O73         O  0.64857244  0.25224521  0.69087339    -0.79400
O74         O  0.71331188  0.20190065  0.83150737    -0.91000
O75         O  0.72155464  0.13221092  0.72669342    -0.77000
O76         O  0.70584596  0.20892078  0.71059932    -0.86400
O77         O  0.75221641  0.19138188  0.76737653    -0.86100
O78         O  0.69770681  0.27973538  0.74363706    -0.72900
O79         O  0.74096471  0.26334576  0.79559259    -0.85000
Zr80       Zr  0.80089605  0.27748229  0.70032935     2.26400
Zr81       Zr  0.70676267  0.26572549  0.68313328     2.06300
Zr82       Zr  0.79465889  0.23306660  0.78953377     2.10000
Zr83       Zr  0.75935136  0.17844278  0.70686495     1.78800
O84         O  0.81932389  0.26289701  0.84274547    -0.93800
O85         O  0.73083852  0.15602420  0.65202607    -0.41600
O86         O  0.80243511  0.22011978  0.72863628    -0.78300
O87         O  0.75992410  0.23454059  0.67625592    -0.97000
O88         O  0.74773536  0.30785089  0.70644248    -0.90300
O89         O  0.79455418  0.28965707  0.76153481    -0.93100
C90         C  0.69499493  0.13138025  0.74497681     1.00600
C91         C  0.74066879  0.20327913  0.85225486     1.13600
C92         C  0.63000400  0.23625445  0.71179696     1.04400
O93         O  0.69523514  0.22956971  0.62954056    -0.95300
O94         O  0.72544546  0.29946687  0.63551046    -0.91000
O95         O  0.78340405  0.30399366  0.64247867    -0.84100
C96         C  0.75423257  0.30964586  0.62544763     1.11000
O97         O  0.70082972  0.34479596  0.80779957    -0.97200
Zr98       Zr  0.74145114  0.31995827  0.76721881     1.88900
O99         O  0.81227492  0.34106235  0.70788192    -0.73900
O100        O  0.66866117  0.31456672  0.66310231    -0.53100
O101        O  0.70537133  0.36793326  0.74226920    -0.97800
O102        O  0.76661673  0.33874342  0.82481852    -0.55000
O103        O  0.78381800  0.36413364  0.75369248    -0.74400
C104        C  0.80566709  0.36644015  0.73004573     0.97900
O105        O  0.84569479  0.26298489  0.66024076    -0.63200
O106        O  0.82727751  0.17731354  0.79876281    -0.58000
O107        O  0.85879978  0.27370481  0.72898710    -0.94700
O108        O  0.85344168  0.24884082  0.78229458    -0.93100
O109        O  0.80032255  0.13538878  0.73304214    -0.93500
O110        O  0.80015685  0.15120417  0.66768982    -0.92300
C111        C  0.87096619  0.26349794  0.75931417     1.16800
H112        H  0.75318139  0.16966160  0.78079127     0.32700
H113        H  0.76340135  0.22983057  0.65169522     0.43600
H114        H  0.81296884  0.30444270  0.77176121     0.37100
H115        H  0.67554283  0.29138690  0.74576420     0.33600
H116        H  0.73916842  0.13089493  0.64879350     0.25400
H117        H  0.65169494  0.30324925  0.64599080     0.31300
H118        H  0.71260133  0.37010369  0.71796855     0.37200
H119        H  0.78684618  0.11366185  0.73710224     0.31700
H120        H  0.84503806  0.18350943  0.81747971     0.30600
H121        H  0.84079176  0.24940563  0.84884182     0.32200
H122        H  0.77397996  0.36388938  0.82213080     0.31200
H123        H  0.80547648  0.17071071  0.65177890     0.35200
H124        H  0.83432255  0.24785482  0.64126906     0.27900
H125        H  0.63755475  0.22249124  0.80956905     0.32200
H126        H  0.68870357  0.32350264  0.81569207     0.35000
H127        H  0.81156025  0.16113560  0.81007521     0.27600
H128        H  0.85037217  0.28601841  0.64905111     0.40500
H129        H  0.68057498  0.24525037  0.61417267     0.30600
H130        H  0.70646943  0.15368207  0.65730259     0.38200
H131        H  0.78829500  0.32475523  0.82768728     0.30000
H132        H  0.65546207  0.32184193  0.68359757     0.30100
H133        H  0.64524673  0.26306261  0.80264865     0.30400
C134        C  0.88870061  0.49956440  0.72466286    -0.03200
C135        C  0.75755764  0.87817760  0.49855771    -0.03200
Zr136      Zr  0.68755919  0.72976607  0.20726043     2.17500
O137        O  0.63494354  0.73941989  0.17093242    -0.52000
O138        O  0.67674190  0.66658934  0.21510179    -0.75200
O139        O  0.69512789  0.70646782  0.14651347    -0.82000
O140        O  0.64781854  0.76769885  0.29155981    -0.83700
O141        O  0.75194973  0.71152610  0.13677595    -0.79400
O142        O  0.63416055  0.73616014  0.24054421    -0.91000
O143        O  0.71709120  0.64731895  0.25589993    -0.77000
O144        O  0.74311388  0.70099857  0.21075835    -0.86400
O145        O  0.70442863  0.72318965  0.26792056    -0.86100
O146        O  0.72657796  0.76856111  0.17990294    -0.72900
O147        O  0.68904056  0.78994035  0.23255000    -0.85000
Zr148      Zr  0.80110647  0.79283933  0.27170880     2.26400
Zr149      Zr  0.78260709  0.74057391  0.18589712     2.06300
Zr150      Zr  0.70741196  0.78291601  0.29282444     2.10000
Zr151      Zr  0.75891039  0.69411594  0.27122726     1.78800
O152        O  0.67432815  0.83847820  0.30014336    -0.93800
O153        O  0.79494934  0.64575398  0.24847372    -0.41600
O154        O  0.76227115  0.75335916  0.29807889    -0.78300
O155        O  0.79961775  0.73248197  0.24650905    -0.97000
O156        O  0.78423020  0.79974525  0.21122806    -0.90300
O157        O  0.74602635  0.82204291  0.26694645    -0.93100
C158        C  0.69004855  0.64269607  0.23545406     1.00600
C159        C  0.62662593  0.75042757  0.27070396     1.13600
C160        C  0.72124368  0.70232823  0.12740996     1.04400
O161        O  0.81689346  0.68640948  0.17516693    -0.95300
O162        O  0.84332213  0.75581007  0.18810228    -0.91000
O163        O  0.85607194  0.78423077  0.24095941    -0.84100
C164        C  0.86457942  0.77141784  0.21050605     1.11000
O165        O  0.67951431  0.84486562  0.16821398    -0.97200
Zr166      Zr  0.72898722  0.82753547  0.20617650     1.88900
O167        O  0.81297996  0.85264085  0.25216019    -0.73900
O168        O  0.79624097  0.77146046  0.13301167    -0.53100
O169        O  0.74419412  0.83925365  0.14659068    -0.97800
O170        O  0.69808291  0.88079504  0.22722417    -0.55000
O171        O  0.77210176  0.87286068  0.21225008    -0.74400
C172        C  0.80033154  0.87595732  0.23058577     0.97900
O173        O  0.84995827  0.78971302  0.31437734    -0.63200
O174        O  0.69756130  0.75769252  0.34967641    -0.58000
O175        O  0.79225491  0.81741950  0.33290267    -0.94700
O176        O  0.73522710  0.81444161  0.34183256    -0.93100
O177        O  0.74096097  0.67496611  0.32780912    -0.93500
O178        O  0.80448852  0.67609986  0.31369744    -0.92300
C179        C  0.76591744  0.82282635  0.35185404     1.16800
H180        H  0.68818433  0.70907115  0.27952526     0.32700
H181        H  0.82213404  0.72135899  0.24869815     0.43600
H182        H  0.74677158  0.84527810  0.27895046     0.37100
H183        H  0.71946601  0.77115553  0.15535859     0.33600
H184        H  0.78916450  0.62431944  0.26171434     0.25400
H185        H  0.80851421  0.75316670  0.11886977     0.31300
H186        H  0.73791620  0.86489072  0.14300908     0.37200
H187        H  0.73984789  0.64832905  0.32555663     0.31700
H188        H  0.68442475  0.73547651  0.34412335     0.30600
H189        H  0.66094400  0.83471050  0.32095812     0.32200
H190        H  0.70839784  0.90132340  0.21581113     0.31200
H191        H  0.82040494  0.69670033  0.31525069     0.35200
H192        H  0.86230130  0.76710561  0.30824506     0.27900
H193        H  0.62954640  0.71559274  0.15968128     0.32200
H194        H  0.66772026  0.82189916  0.16198994     0.35000
H195        H  0.72032171  0.74874705  0.35867637     0.27600
H196        H  0.86528350  0.80928552  0.30817209     0.40500
H197        H  0.80120517  0.66940827  0.16203204     0.30600
H198        H  0.78533463  0.64068950  0.22424945     0.38200
H199        H  0.70539380  0.88398752  0.25240137     0.30000
H200        H  0.77402468  0.77519077  0.11966968     0.30100
H201        H  0.64168934  0.75448705  0.15155012     0.30400
C202        C  0.75218892  0.62929432  0.99438777    -0.03200
C203        C  0.50381917  0.74042662  0.35608878    -0.03200
C204        C  0.10491958  0.99027089  0.72256866    -0.03200
C205        C  0.74387405  0.12139084  0.98676416    -0.03200
C206        C  0.36711536  0.49826848  0.74893092    -0.03200
C207        C  0.74609116  0.38987782  0.49653540    -0.03200
C208        C  0.61703175  0.50885833  0.25988632    -0.03200
C209        C  0.24440112  0.61480134  0.48247918    -0.03200
C210        C  0.99093365  0.77747428  0.12896811    -0.03200
Zr211      Zr  0.28121101  0.69426523  0.26271811     2.17500
O212        O  0.30804390  0.63716562  0.24598361    -0.52000
O213        O  0.27712546  0.68201127  0.32442944    -0.75200
O214        O  0.34266264  0.70175161  0.28424373    -0.82000
O215        O  0.18949925  0.66801315  0.25068006    -0.83700
O216        O  0.36032872  0.75722270  0.26916062    -0.79400
O217        O  0.24004062  0.64494940  0.27223455    -0.91000
O218        O  0.24961146  0.73042814  0.34828388    -0.77000
O219        O  0.29236569  0.75318238  0.28681539    -0.86400
O220        O  0.22801197  0.72073455  0.27814824    -0.86100
O221        O  0.30461331  0.72747086  0.21598762    -0.72900
O222        O  0.24620700  0.69755977  0.20803929    -0.85000
Zr223      Zr  0.22354778  0.81490303  0.20185910     2.26400
Zr224      Zr  0.31277722  0.78700491  0.24045589     2.06300
Zr225      Zr  0.19361363  0.72462579  0.22499066     2.10000
Zr226      Zr  0.23961649  0.77796442  0.30363830     1.78800
O227        O  0.16444579  0.68024723  0.18596104    -0.93800
O228        O  0.28123771  0.80423947  0.34700367    -0.41600
O229        O  0.20273562  0.78307676  0.25037873    -0.78300
O230        O  0.25936650  0.81273406  0.25655763    -0.97000
O231        O  0.27817427  0.79095262  0.18719684    -0.90300
O232        O  0.21485790  0.75599218  0.17757007    -0.93100
C233        C  0.26308927  0.69828879  0.35013680     1.00600
C234        C  0.20707948  0.64358329  0.26647744     1.13600
C235        C  0.36550008  0.72683983  0.28330613     1.04400
O236        O  0.34272912  0.82490738  0.28535214    -0.95300
O237        O  0.31448538  0.84891007  0.22667883    -0.91000
O238        O  0.26277670  0.86603047  0.20170513    -0.84100
C239        C  0.29421887  0.87207445  0.21231790     1.11000
O240        O  0.29065010  0.67438869  0.14156610    -0.97200
Zr241      Zr  0.26893362  0.73261612  0.16233629     1.88900
O242        O  0.23247269  0.82714754  0.13978347    -0.73900
O243        O  0.35852675  0.78845427  0.19985769    -0.53100
O244        O  0.32422171  0.73395341  0.13607728    -0.97800
O245        O  0.22804537  0.70756517  0.11763319    -0.55000
O246        O  0.26371414  0.78023429  0.11791933    -0.74400
C247        C  0.24918722  0.81164589  0.11515015     0.97900
O248        O  0.19167449  0.86971653  0.21623411    -0.63200
O249        O  0.14641740  0.73915466  0.26222159    -0.58000
O250        O  0.16038829  0.80854379  0.18274219    -0.94700
O251        O  0.14514464  0.75181030  0.19574530    -0.93100
O252        O  0.18472872  0.77642488  0.33055910    -0.93500
O253        O  0.22258838  0.83745427  0.32576416    -0.92300
C254        C  0.13816708  0.78263923  0.18325042     1.16800
H255        H  0.21648023  0.70734128  0.29514755     0.32700
H256        H  0.26293240  0.83694124  0.26571721     0.43600
H257        H  0.19893734  0.75601783  0.15718529     0.37100
H258        H  0.32646270  0.71669700  0.21054844     0.33600
H259        H  0.27304953  0.79763630  0.37001975     0.25400
H260        H  0.37920847  0.79526957  0.21470409     0.31300
H261        H  0.32875849  0.75985152  0.13314788     0.26000
H262        H  0.19025978  0.78171764  0.35586084     0.31700
H263        H  0.12668350  0.72502052  0.25220041     0.30600
H264        H  0.18304043  0.66475853  0.17699750     0.32200
H265        H  0.22273783  0.68328036  0.12575511     0.31200
H266        H  0.21275196  0.84986706  0.30476625     0.35200
H267        H  0.17873546  0.87619357  0.19414824     0.27900
H268        H  0.32124787  0.62958522  0.26755759     0.32200
H269        H  0.28610452  0.65760931  0.16041873     0.35000
H270        H  0.15294454  0.72805923  0.28496334     0.27600
H271        H  0.17404145  0.86196932  0.23194012     0.40500
H272        H  0.32441340  0.83847977  0.29710249     0.30600
H273        H  0.30259053  0.78986657  0.34479399     0.38200
H274        H  0.24142210  0.70309081  0.09663644     0.30000
H275        H  0.36275243  0.76302868  0.19264875     0.30100
H276        H  0.32565904  0.64374832  0.22977012     0.30400
C277        C  0.25100967  0.90143353  0.98425395    -0.03200
C278        C  0.49748556  0.24915898  0.63225087    -0.03200
Zr279      Zr  0.30187152  0.26358966  0.76041067     2.17500
O280        O  0.34833902  0.24926056  0.80340688    -0.52000
O281        O  0.31271437  0.32810068  0.75327810    -0.75200
O282        O  0.35637810  0.25852782  0.73096538    -0.82000
O283        O  0.23930952  0.27607102  0.83188410    -0.83700
O284        O  0.34239994  0.23790049  0.67528044    -0.79400
O285        O  0.29280218  0.29232116  0.81889289    -0.91000
O286        O  0.26720299  0.35246983  0.72172610    -0.77000
O287        O  0.28311262  0.28169178  0.70270867    -0.86400
O288        O  0.24491750  0.28678159  0.76323289    -0.86100
O289        O  0.30091140  0.20855739  0.72411183    -0.72900
O290        O  0.26979822  0.21317871  0.78063525    -0.85000
Zr291      Zr  0.19051594  0.20643715  0.68684508     2.26400
Zr292      Zr  0.28179331  0.22797897  0.66691753     2.06300
Zr293      Zr  0.21373917  0.23770845  0.78412977     2.10000
Zr294      Zr  0.22634271  0.30514523  0.70625185     1.78800
O295        O  0.21949975  0.18550700  0.82127735    -0.93800
O296        O  0.23037567  0.33454837  0.65042115    -0.41600
O297        O  0.19307958  0.25781147  0.72710971    -0.78300
O298        O  0.22528142  0.25362985  0.66666038    -0.97000
O299        O  0.24636908  0.18071337  0.68418956    -0.90300
O300        O  0.20876827  0.18643699  0.74477569    -0.93100
C301        C  0.29642026  0.35480292  0.73876087     1.00600
C302        C  0.26699847  0.29398553  0.83866738     1.13600
C303        C  0.36415881  0.24811207  0.69978161     1.04400
O304        O  0.28311844  0.27589805  0.62485457    -0.95300
O305        O  0.25766428  0.19212392  0.61891307    -0.91000
O306        O  0.20026674  0.19192363  0.62268528    -0.84100
C307        C  0.22765389  0.18624119  0.60528467     1.11000
O308        O  0.31513741  0.13432618  0.77071548    -0.97200
Zr309      Zr  0.26453608  0.16099525  0.74072283     1.88900
O310        O  0.17949458  0.14259156  0.68793392    -0.73900
O311        O  0.31389683  0.18852345  0.62782429    -0.53100
O312        O  0.29767085  0.12427247  0.70056382    -0.97800
O313        O  0.25187978  0.12425391  0.79034669    -0.55000
O314        O  0.22274196  0.11543836  0.71968665    -0.74400
C315        C  0.19393387  0.11469372  0.70149293     0.97900
O316        O  0.13743295  0.21572799  0.65126352    -0.63200
O317        O  0.17302812  0.25089084  0.82924803    -0.58000
O318        O  0.13676956  0.22077267  0.71693471    -0.94700
O319        O  0.15305237  0.23867864  0.77306584    -0.93100
O320        O  0.19849536  0.35098040  0.74218849    -0.93500
O321        O  0.16922668  0.32139527  0.68229862    -0.92300
C322        C  0.13032227  0.23238002  0.74830893     1.16800
H323        H  0.24367202  0.30844667  0.77754722     0.32700
H324        H  0.21734278  0.26048228  0.64323193     0.43600
H325        H  0.19279954  0.16960778  0.75331019     0.37100
H326        H  0.32368142  0.19815469  0.72370696     0.33600
H327        H  0.22046051  0.35896546  0.65430999     0.25400
H328        H  0.33438557  0.20158311  0.62130479     0.31300
H329        H  0.28066556  0.11491398  0.68236506     0.37200
H330        H  0.20347565  0.37421841  0.73154959     0.31700
H331        H  0.18500307  0.24465337  0.85190754     0.30600
H332        H  0.19577677  0.17683250  0.82269333     0.32200
H333        H  0.25977939  0.09957881  0.78387920     0.31200
H334        H  0.15777154  0.29804156  0.67701847     0.35200
H335        H  0.14351430  0.23206867  0.63260067     0.27900
H336        H  0.36507780  0.26886950  0.80187783     0.32200
H337        H  0.33264293  0.15341162  0.77142232     0.35000
H338        H  0.17015963  0.27743940  0.83051693     0.27600
H339        H  0.13288061  0.19224498  0.63895920     0.40500
H340        H  0.30374985  0.28994126  0.63244183     0.30600
H341        H  0.25514631  0.33872159  0.64867478     0.38200
H342        H  0.22657997  0.12240634  0.78926906     0.30000
H343        H  0.32270288  0.16850016  0.64252832     0.30100
H344        H  0.35976326  0.22755442  0.79352343     0.30400
C345        C  0.00908247  0.26205132  0.83088757    -0.03200
Zr346      Zr  0.69957989  0.28649003  0.27910092     2.17500
O347        O  0.65729882  0.27628737  0.32217966    -0.52000
O348        O  0.68447395  0.34800465  0.26538549    -0.75200
O349        O  0.71722171  0.31330610  0.33760834    -0.82000
O350        O  0.64445239  0.24376787  0.20239904    -0.83700
O351        O  0.77497223  0.30495072  0.34685320    -0.79400
O352        O  0.64083502  0.27823069  0.25267133    -0.91000
O353        O  0.72593796  0.37152340  0.23421746    -0.77000
O354        O  0.75314733  0.31476757  0.27219032    -0.86400
O355        O  0.70487075  0.29350471  0.21769567    -0.86100
O356        O  0.74283802  0.24703997  0.30456231    -0.72900
O357        O  0.69673632  0.22715768  0.25247429    -0.85000
Zr358      Zr  0.79933689  0.22300076  0.20787189     2.26400
Zr359      Zr  0.79654146  0.27462986  0.29549898     2.06300
Zr360      Zr  0.70379471  0.23437796  0.19121170     2.10000
Zr361      Zr  0.75810627  0.32160762  0.21092404     1.78800
O362        O  0.67445596  0.17757410  0.17820968    -0.93800
O363        O  0.80062872  0.36714316  0.22852827    -0.41600
O364        O  0.75708635  0.26312721  0.18231388    -0.78300
O365        O  0.80216720  0.28263150  0.23393414    -0.97000
O366        O  0.79453389  0.21556904  0.26940053    -0.90300
O367        O  0.74619297  0.19439899  0.21551539    -0.93100
C368        C  0.69863432  0.37427229  0.25090095     1.00600
C369        C  0.62753636  0.26180876  0.22482637     1.13600
C370        C  0.74573195  0.31633141  0.35641055     1.04400
O371        O  0.83052960  0.32754835  0.31254006    -0.95300
O372        O  0.85616832  0.26453490  0.28287197    -0.91000
O373        O  0.85862023  0.23212296  0.23139076    -0.84100
C374        C  0.87277387  0.24872985  0.25855945     1.11000
O375        O  0.70041168  0.17921290  0.32230707    -0.97200
Zr376      Zr  0.74051439  0.18860927  0.27700407     1.88900
O377        O  0.80935479  0.16017951  0.21865280    -0.73900
O378        O  0.81839450  0.23817245  0.34423628    -0.53100
O379        O  0.76997293  0.16427510  0.32939956    -0.97800
O380        O  0.70000890  0.14158282  0.25817886    -0.55000
O381        O  0.77789322  0.13997441  0.26213366    -0.74400
C382        C  0.80040139  0.13600259  0.23947369     0.97900
O383        O  0.84705504  0.22723388  0.16985136    -0.63200
O384        O  0.67823117  0.26535492  0.14035564    -0.58000
O385        O  0.78277843  0.20030361  0.14769688    -0.94700
O386        O  0.72490780  0.20642167  0.13868777    -0.93100
O387        O  0.72371116  0.33998093  0.15900579    -0.93500
O388        O  0.79321767  0.34239583  0.16505267    -0.92300
C389        C  0.75444671  0.19663871  0.12876335     1.16800
H390        H  0.68623420  0.30804553  0.20774499     0.32700
H391        H  0.82377207  0.29355977  0.22983664     0.43600
H392        H  0.74475637  0.17135684  0.20316839     0.37100
H393        H  0.73981267  0.24467117  0.32926602     0.33600
H394        H  0.79016135  0.39032325  0.22094345     0.25400
H395        H  0.83391218  0.25437148  0.35861221     0.31300
H396        H  0.76134939  0.13938082  0.33061547     0.37200
H397        H  0.72845362  0.32144131  0.14064055     0.31700
H398        H  0.65827172  0.25054570  0.13216301     0.30600
H399        H  0.65465978  0.18379686  0.16199249     0.32200
H400        H  0.70582598  0.12136160  0.27391948     0.31200
H401        H  0.80144213  0.32000959  0.15332128     0.35200
H402        H  0.85049387  0.20252600  0.15999883     0.27900
H403        H  0.65142593  0.30051488  0.33186143     0.32200
H404        H  0.67865824  0.19044696  0.31316748     0.35000
H405        H  0.66800948  0.28790027  0.14985635     0.27600
H406        H  0.83811342  0.24152163  0.14970523     0.40500
H407        H  0.84356334  0.32096376  0.33454516     0.30600
H408        H  0.80070602  0.36854487  0.25451349     0.38200
H409        H  0.70701462  0.13301663  0.23480810     0.30000
H410        H  0.79856383  0.23502891  0.35881895     0.30100
H411        H  0.67007135  0.26407776  0.34176797     0.30400
C412        C  0.88501080  0.00546866  0.22260937    -0.03200
C413        C  0.01248049  0.23924211  0.32283696    -0.03200
Zr414      Zr  0.27786422  0.32759975  0.19338927     2.17500
O415        O  0.30895385  0.38345165  0.20606673    -0.52000
O416        O  0.27059504  0.33769553  0.13006009    -0.75200
O417        O  0.33912467  0.32117734  0.18269916    -0.82000
O418        O  0.19253032  0.36859914  0.21554841    -0.83700
O419        O  0.35599514  0.26322747  0.19288512    -0.79400
O420        O  0.24398076  0.38408934  0.19588635    -0.91000
O421        O  0.23580389  0.29460490  0.10441875    -0.77000
O422        O  0.28173233  0.26939232  0.16550519    -0.86400
O423        O  0.22077601  0.30946251  0.17682687    -0.86100
O424        O  0.30439336  0.28934411  0.23779310    -0.72900
O425        O  0.24902181  0.32625112  0.24752489    -0.85000
Zr426      Zr  0.22259742  0.20993227  0.24480228     2.26400
Zr427      Zr  0.30722020  0.23084617  0.20947652     2.06300
Zr428      Zr  0.19261939  0.30639193  0.23040289     2.10000
Zr429      Zr  0.22451590  0.25172040  0.14902158     1.78800
O430        O  0.17753321  0.34234587  0.28188515    -0.93800
O431        O  0.25251941  0.21327349  0.10612890    -0.41600
O432        O  0.19494350  0.24823263  0.20189399    -0.78300
O433        O  0.25084210  0.21177580  0.19072805    -0.97000
O434        O  0.27918134  0.22806886  0.26310617    -0.90300
O435        O  0.21748021  0.26731941  0.27385818    -0.93100
C436        C  0.25356621  0.32334879  0.10335330     1.00600
C437        C  0.21300133  0.39141121  0.20401874     1.13600
C438        C  0.36175162  0.29558788  0.18445385     1.04400
O439        O  0.33315975  0.20158761  0.15935624    -0.95300
O440        O  0.30193188  0.16638275  0.21482969    -0.91000
O441        O  0.25005411  0.15218414  0.23385820    -0.84100
C442        C  0.27946592  0.14359286  0.22294779     1.11000
O443        O  0.30282159  0.34084448  0.31338536    -0.97200
Zr444      Zr  0.27404354  0.28635095  0.29068937     1.88900
O445        O  0.23167660  0.19847243  0.30751628    -0.73900
O446        O  0.35448037  0.21377761  0.25053473    -0.53100
O447        O  0.32979361  0.27566775  0.32100559    -0.97800
O448        O  0.24129686  0.32109443  0.33291359    -0.55000
O449        O  0.26469572  0.24193721  0.33491353    -0.74400
C450        C  0.24806392  0.21233139  0.33482581     0.97900
O451        O  0.19248501  0.15248757  0.24107506    -0.63200
O452        O  0.13741433  0.31702844  0.19912853    -0.58000
O453        O  0.16132145  0.21441563  0.24747775    -0.94700
O454        O  0.14528958  0.27352952  0.24894079    -0.93100
O455        O  0.16681134  0.26775544  0.12655345    -0.93500
O456        O  0.19237968  0.20006286  0.12457376    -0.92300
C457        C  0.13969586  0.23998907  0.25183902     1.16800
H458        H  0.20909422  0.32637306  0.16121285     0.32700
H459        H  0.25104397  0.18853891  0.17879320     0.43600
H460        H  0.20333258  0.26590665  0.29358422     0.37100
H461        H  0.32719937  0.29779110  0.24454407     0.33600
H462        H  0.24292420  0.22120113  0.08297709     0.25400
H463        H  0.34513135  0.19497692  0.26506679     0.31300
H464        H  0.34644338  0.27548211  0.30242212     0.37200
H465        H  0.15135401  0.25668853  0.14275886     0.31700
H466        H  0.13024877  0.34167335  0.20651457     0.30600
H467        H  0.16513165  0.32573448  0.29636778     0.32200
H468        H  0.25555754  0.32050743  0.35525156     0.31200
H469        H  0.18358987  0.18852671  0.14527932     0.35200
H470        H  0.17883994  0.15160645  0.26211605     0.27900
H471        H  0.32031875  0.38861741  0.18425708     0.32200
H472        H  0.32073827  0.34516453  0.29674407     0.35000
H473        H  0.14267822  0.31884016  0.17418874     0.27600
H474        H  0.17552927  0.15389839  0.22076343     0.40500
H475        H  0.35242396  0.18701007  0.16970257     0.30600
H476        H  0.27667109  0.22117608  0.10745607     0.38200
H477        H  0.22120424  0.30632748  0.33731347     0.30000
H478        H  0.37095751  0.20067079  0.23588273     0.30100
H479        H  0.32782816  0.37720202  0.22340165     0.30400
C480        C  0.25672584  0.39630422  0.96466995    -0.03200
C481        C  0.36225796  0.01307285  0.22723270    -0.03200
Zr482      Zr  0.03962921  0.01049820  0.40901375     2.17500
O483        O  0.07656457  0.98960497  0.36299115    -0.52000
O484        O  0.03464708  0.07477481  0.39552785    -0.75200
O485        O  0.00904843  0.00898017  0.35274248    -0.82000
O486        O  0.11560269  0.02299676  0.47249890    -0.83700
O487        O  0.95805688  0.98295824  0.36216291    -0.79400
O488        O  0.09850828  0.02978511  0.41504054    -0.91000
O489        O  0.99006353  0.09764423  0.42408833    -0.77000
O490        O  0.98147735  0.02550151  0.41899580    -0.86400
O491        O  0.04085360  0.04448788  0.46268168    -0.86100
O492        O  0.01021498  0.95373075  0.41149823    -0.72900
O493        O  0.06569027  0.96947271  0.45055984    -0.85000
Zr494      Zr  0.97717793  0.96490977  0.51936747     2.26400
Zr495      Zr  0.95233534  0.96991698  0.42275287     2.06300
Zr496      Zr  0.06636780  0.00408675  0.50407120     2.10000
Zr497      Zr  0.98260623  0.05888375  0.47294876     1.78800
O498        O  0.11335372  0.96558613  0.52627995    -0.93800
O499        O  0.92620289  0.08454267  0.45720687    -0.41600
O500        O  0.00826676  0.02005823  0.51607404    -0.78300
O501        O  0.95133907  0.00435668  0.47660043    -0.97000
O502        O  0.97615108  0.92999454  0.46597969    -0.90300
O503        O  0.03546387  0.94931596  0.50943035    -0.93100
C504        C  0.01313264  0.10037302  0.40190991     1.00600
C505        C  0.12078163  0.03220561  0.44098812     1.13600
C506        C  0.97932762  0.99752346  0.34282663     1.04400
O507        O  0.90246449  0.00536436  0.40270302    -0.95300
O508        O  0.90198722  0.94975468  0.45013584    -0.91000
O509        O  0.91634052  0.94764455  0.50878701    -0.84100
C510        C  0.89491679  0.94377017  0.48182009     1.11000
O511        O  0.06403188  0.89040128  0.40593236    -0.97200
Zr512      Zr  0.03421163  0.91465941  0.45614855     1.88900
O513        O  0.98550944  0.90339212  0.53908748    -0.73900
O514        O  0.93283957  0.91616847  0.38933730    -0.53100
O515        O  0.00932116  0.86236726  0.42440005    -0.97800
O516        O  0.09033545  0.89427135  0.47991764    -0.55000
O517        O  0.01868713  0.87273201  0.50115681    -0.74400
C518        C  0.00093644  0.87456732  0.52858914     0.97900
O519        O  0.94297785  0.98280170  0.56863663    -0.63200
O520        O  0.08940204  0.05886256  0.53299592    -0.58000
O521        O  0.00732131  0.98078759  0.57492999    -0.94700
O522        O  0.06045838  0.00255260  0.56608526    -0.93100
O523        O  0.01259490  0.10939664  0.50240663    -0.93500
O524        O  0.95081248  0.08165418  0.52218911    -0.92300
C525        C  0.03687122  0.99297370  0.58553809     1.16800
H526        H  0.05429695  0.06598373  0.46166448     0.32700
H527        H  0.92807122  0.01048922  0.48196244     0.43600
H528        H  0.04563558  0.93577400  0.52870248     0.37100
H529        H  0.01070272  0.94113643  0.38895580     0.33600
H530        H  0.92945070  0.11099419  0.45848181     0.25400
H531        H  0.94537950  0.91570398  0.36751210     0.31300
H532        H  0.99331401  0.85191007  0.44039891     0.37200
H533        H  0.02007346  0.10052295  0.52590795     0.31700
H534        H  0.11147614  0.05120612  0.54475963     0.30600
H535        H  0.12778020  0.96113516  0.50606156     0.32200
H536        H  0.08976898  0.86763710  0.47748179     0.31200
H537        H  0.95047986  0.06116026  0.53821476     0.35200
H538        H  0.92507204  0.99936984  0.55870726     0.27900
H539        H  0.07510625  0.00860208  0.34522890     0.32200
H540        H  0.08208097  0.87373675  0.41532287     0.35000
H541        H  0.09592495  0.07445794  0.51390498     0.27600
H542        H  0.93053597  0.96093029  0.57455825     0.40500
H543        H  0.89009420  0.98954537  0.38497587     0.30600
H544        H  0.92216680  0.07867825  0.43180281     0.38200
H545        H  0.09034026  0.89923146  0.50555529     0.30000
H546        H  0.94284934  0.89577974  0.40280191     0.30100
H547        H  0.06478864  0.96858224  0.35139469     0.30400
Zr548      Zr  0.05258315  0.04387770  0.94630674     2.17500
O549        O  0.09629334  0.08786290  0.96448828    -0.52000
O550        O  0.06577855  0.03176318  0.88665459    -0.75200
O551        O  0.10918585  0.01289048  0.95713767    -0.82000
O552        O  0.98551669  0.11818514  0.92508375    -0.83700
O553        O  0.09668744  0.96021010  0.98210621    -0.79400
O554        O  0.04107190  0.10266999  0.91684171    -0.91000
O555        O  0.02188884  0.99766526  0.86246678    -0.77000
O556        O  0.03682009  0.98252758  0.93149883    -0.86400
O557        O  0.99627489  0.04406894  0.91773630    -0.86100
O558        O  0.05312835  0.01278869  0.00105729    -0.72900
O559        O  0.01628243  0.07274153  0.98773975    -0.85000
Zr560      Zr  0.94362299  0.98181806  0.99984360     2.26400
Zr561      Zr  0.03555941  0.95209205  0.98535998     2.06300
Zr562      Zr  0.96031885  0.07221501  0.95900181     2.10000
Zr563      Zr  0.98043224  0.98370609  0.90442828     1.78800
O564        O  0.96037871  0.12511562  0.99833841    -0.93800
O565        O  0.99522540  0.92603848  0.87643400    -0.41600
O566        O  0.94307620  0.01161665  0.94485660    -0.78300
O567        O  0.97908233  0.95182130  0.95801829    -0.97000
O568        O  0.00000683  0.97991427  0.02752321    -0.90300
O569        O  0.96010116  0.04268684  0.01329433    -0.93100
C570        C  0.05014604  0.01461090  0.86107835     1.00600
C571        C  0.01452585  0.12387545  0.91223004     1.13600
C572        C  0.11820797  0.98292960  0.97191476     1.04400
O573        O  0.03786255  0.90368979  0.94103724    -0.95300
O574        O  0.00921348  0.91069325  0.02321664    -0.91000
O575        O  0.95297090  0.92425113  0.02948543    -0.84100
C576        C  0.98009468  0.90475291  0.03564466     1.11000
O577        O  0.06408320  0.07782498  0.06221500    -0.97200
Zr578      Zr  0.01593152  0.04037415  0.04125826     1.88900
O579        O  0.93205885  0.99331233  0.06038391    -0.73900
O580        O  0.06862398  0.90653595  0.01822030    -0.53100
O581        O  0.05386241  0.00620491  0.08138367    -0.97800
O582        O  0.00138325  0.09598903  0.07307458    -0.55000
O583        O  0.97615809  0.02679407  0.08471809    -0.74400
C584        C  0.94779957  0.01020515  0.08611938     0.97900
O585        O  0.89655500  0.94231001  0.98036162    -0.63200
O586        O  0.91455149  0.09593201  0.91973247    -0.58000
O587        O  0.88935224  0.01641470  0.99750917    -0.94700
O588        O  0.90055321  0.06867947  0.97092231    -0.93100
O589        O  0.94402924  0.01599044  0.86154065    -0.93500
O590        O  0.93176635  0.94846474  0.88069911    -0.92300
C591        C  0.88043386  0.04762911  0.98572997     1.16800
H592        H  0.99537808  0.05666032  0.89593134     0.32700
H593        H  0.97149207  0.92735598  0.95330199     0.43600
H594        H  0.94427045  0.05493652  0.02824133     0.37100
H595        H  0.07543515  0.01361513  0.01310986     0.33600
H596        H  0.98906965  0.92905054  0.85110009     0.25400
H597        H  0.08726807  0.89812191  0.00337205     0.31300
H598        H  0.05340843  0.01962633  0.10419241     0.37200
H599        H  0.94935813  0.00482644  0.83855862     0.31700
H600        H  0.91952650  0.12178453  0.91714626     0.30600
H601        H  0.94901631  0.14424678  0.98411404     0.32200
H602        H  0.00739030  0.09117479  0.09812859     0.31200
H603        H  0.92217922  0.93797106  0.90152211     0.35200
H604        H  0.88753628  0.95245901  0.95788539     0.27900
H605        H  0.11400107  0.08486058  0.94706488     0.32200
H606        H  0.06740441  0.09428007  0.04275996     0.35000
H607        H  0.91824125  0.08426171  0.89657452     0.27600
H608        H  0.90774276  0.91935210  0.97322741     0.40500
H609        H  0.06242008  0.90154265  0.93611321     0.30600
H610        H  0.02059795  0.92518880  0.87786228     0.38200
H611        H  0.97601477  0.09740096  0.07140054     0.30000
H612        H  0.08015968  0.91962623  0.03844095     0.30100
H613        H  0.10725738  0.07869804  0.98661706     0.30400
Zr614      Zr  0.56033979  0.03372015  0.51455409     2.17500
O615        O  0.61152909  0.06934452  0.50910024    -0.52000
O616        O  0.56893468  0.02869404  0.57746190    -0.75200
O617        O  0.54880263  0.09653203  0.53851689    -0.82000
O618        O  0.60362911  0.94348186  0.48203581    -0.83700
O619        O  0.49155358  0.10896030  0.53069778    -0.79400
O620        O  0.61573370  0.99660225  0.51142295    -0.91000
O621        O  0.52848747  0.99191370  0.59698964    -0.77000
O622        O  0.50553928  0.03196369  0.53945417    -0.86400
O623        O  0.54646467  0.97176354  0.52118428    -0.86100
O624        O  0.51946573  0.06254800  0.47386334    -0.72900
O625        O  0.55744855  0.00735900  0.45585577    -0.85000
Zr626      Zr  0.44692800  0.97147157  0.44869251     2.26400
Zr627      Zr  0.46468100  0.05939143  0.49907078     2.06300
Zr628      Zr  0.54289895  0.94568583  0.46285437     2.10000
Zr629      Zr  0.49236808  0.97049735  0.54653991     1.78800
O630        O  0.57525654  0.94096762  0.41023287    -0.93800
O631        O  0.45531628  0.98594384  0.59424040    -0.41600
O632        O  0.48857869  0.94291150  0.48875640    -0.78300
O633        O  0.44993821  0.99807537  0.50725275    -0.97000
O634        O  0.46097868  0.03296165  0.44148860    -0.90300
O635        O  0.50142821  0.97320358  0.42312868    -0.93100
C636        C  0.55481019  0.01216882  0.60173850     1.00600
C637        C  0.62481336  0.96485890  0.49886847     1.13600
C638        C  0.52191687  0.11722915  0.54204451     1.04400
O639        O  0.43236994  0.07256800  0.55072506    -0.95300
O640        O  0.40378030  0.05885944  0.48309716    -0.91000
O641        O  0.39141031  0.00581144  0.45373545    -0.84100
C642        C  0.38264215  0.03707003  0.46697299     1.11000
O643        O  0.56201100  0.07308676  0.40178629    -0.97200
Zr644      Zr  0.51509044  0.03460353  0.41624131     1.88900
O645        O  0.43023665  0.98827643  0.38908783    -0.73900
O646        O  0.45121625  0.11471194  0.46790551    -0.53100
O647        O  0.49732363  0.09539040  0.40010144    -0.97800
O648        O  0.54697344  0.00766845  0.36869842    -0.55000
O649        O  0.47084434  0.02449823  0.36905068    -0.74400
C650        C  0.44238925  0.00738082  0.36529491     0.97900
O651        O  0.40189422  0.92897561  0.45909851    -0.63200
O652        O  0.55650808  0.88507447  0.48279021    -0.58000
O653        O  0.45611064  0.91130098  0.41933761    -0.94700
O654        O  0.51269980  0.89769930  0.43031586    -0.93100
O655        O  0.52064100  0.91511279  0.56620069    -0.93500
O656        O  0.44937691  0.92566791  0.55673093    -0.92300
C657        C  0.48271882  0.89029688  0.41657531     1.16800
H658        H  0.56362591  0.95971582  0.53599922     0.32700
H659        H  0.42774321  0.99697219  0.51714544     0.43600
H660        H  0.50047369  0.96072392  0.40051888     0.37100
H661        H  0.52551417  0.08740413  0.47160347     0.33600
H662        H  0.46427544  0.00889791  0.60476514     0.25400
H663        H  0.43683992  0.10710561  0.44677872     0.31300
H664        H  0.50272740  0.09712620  0.37516126     0.37200
H665        H  0.52160553  0.91728542  0.59219548     0.31700
H666        H  0.57713901  0.87745570  0.47045635     0.30600
H667        H  0.59113564  0.92024539  0.41416267     0.32200
H668        H  0.54667066  0.02624137  0.35056341     0.31200
H669        H  0.44230079  0.91577579  0.53303062     0.35200
H670        H  0.38934662  0.93998814  0.47862526     0.27900
H671        H  0.61773404  0.07844645  0.53330698     0.32200
H672        H  0.57076700  0.08374005  0.42465221     0.35000
H673        H  0.56467928  0.88841085  0.50772862     0.27600
H674        H  0.38568645  0.93046379  0.43819883     0.40500
H675        H  0.42159718  0.09649750  0.54651094     0.30600
H676        H  0.43295807  0.99273535  0.58254128     0.38200
H677        H  0.53216730  0.98838733  0.35795798     0.30000
H678        H  0.43531503  0.12828585  0.48286419     0.30100
H679        H  0.60344065  0.09093478  0.49623612     0.30400
C680        C  0.24657595  0.11674562  0.46044326    -0.03200
Zr681      Zr  0.44259593  0.05460639  0.02177657     2.17500
O682        O  0.39775761  0.10073576  0.01590314    -0.52000
O683        O  0.43412941  0.03901388  0.08190282    -0.75200
O684        O  0.38483155  0.02502396  0.00996731    -0.82000
O685        O  0.51169095  0.12605083  0.04000390    -0.83700
O686        O  0.39642332  0.96920374  0.98713513    -0.79400
O687        O  0.45686944  0.11398687  0.05184875    -0.91000
O688        O  0.48011471  0.00816476  0.10596871    -0.77000
O689        O  0.45950915  0.99403032  0.03497741    -0.86400
O690        O  0.50076434  0.05506465  0.04608044    -0.86100
O691        O  0.43948509  0.02188617  0.96582800    -0.72900
O692        O  0.47582952  0.07992522  0.97689986    -0.85000
Zr693      Zr  0.54698684  0.98410766  0.96113388     2.26400
Zr694      Zr  0.45666099  0.96135198  0.98012741     2.06300
Zr695      Zr  0.53338145  0.07919287  0.00128812     2.10000
Zr696      Zr  0.51736721  0.99515683  0.05896525     1.78800
O697        O  0.52893310  0.12580517  0.95768240    -0.93800
O698        O  0.50691947  0.93729711  0.08477671    -0.41600
O699        O  0.55121086  0.01904437  0.01537640    -0.78300
O700        O  0.51392856  0.95966574  0.00544026    -0.97000
O701        O  0.49001582  0.98411538  0.93552866    -0.90300
O702        O  0.53167427  0.04523756  0.94749186    -0.93100
C703        C  0.45046232  0.02294435  0.10731610     1.00600
C704        C  0.48408808  0.13379070  0.05535571     1.13600
C705        C  0.37533542  0.99363927  0.99681475     1.04400
O706        O  0.45094648  0.91802179  0.02596112    -0.95300
O707        O  0.48092363  0.90956571  0.95052188    -0.91000
O708        O  0.53731609  0.91938022  0.94524302    -0.84100
C709        C  0.51078133  0.89883387  0.94245123     1.11000
O710        O  0.42368329  0.08015274  0.90506485    -0.97200
Zr711      Zr  0.47452545  0.04481411  0.92266843     1.88900
O712        O  0.54977504  0.98873195  0.89836162    -0.73900
O713        O  0.42308767  0.92361502  0.93770689    -0.53100
O714        O  0.43661623  0.00910373  0.88276587    -0.97800
O715        O  0.48578595  0.09973195  0.89179857    -0.55000
O716        O  0.51247456  0.03007887  0.87597086    -0.74400
C717        C  0.53723400  0.00744326  0.87292680     0.97900
O718        O  0.59855379  0.94722710  0.97170942    -0.63200
O719        O  0.58143812  0.11536743  0.02528408    -0.58000
O720        O  0.60288261  0.01352504  0.96564766    -0.94700
O721        O  0.59315798  0.06810745  0.99235197    -0.93100
O722        O  0.55300113  0.02888999  0.10279576    -0.93500
O723        O  0.57080587  0.96370136  0.07542974    -0.92300
C724        C  0.61284488  0.04413961  0.97906821     1.16800
H725        H  0.50327060  0.06843844  0.06812546     0.32700
H726        H  0.52109030  0.93519475  0.01028128     0.43600
H727        H  0.54728021  0.05529470  0.93188666     0.37100
H728        H  0.41660571  0.02267356  0.95506475     0.33600
H729        H  0.51759797  0.93932562  0.10895996     0.25400
H730        H  0.40315111  0.91475029  0.94965491     0.31300
H731        H  0.45193576  0.99190928  0.87071688     0.37200
H732        H  0.54509204  0.02178720  0.12576745     0.31700
H733        H  0.57286601  0.14050980  0.02760102     0.30600
H734        H  0.51502115  0.14524009  0.96843415     0.32200
H735        H  0.51106928  0.10097332  0.89153684     0.31200
H736        H  0.58576849  0.96772500  0.05587681     0.35200
H737        H  0.59209077  0.92869798  0.98820136     0.27900
H738        H  0.37923621  0.09277111  0.03041375     0.32200
H739        H  0.41646512  0.09179135  0.92720186     0.35000
H740        H  0.58621881  0.10723833  0.04958865     0.27600
H741        H  0.60202912  0.93380911  0.94934188     0.40500
H742        H  0.42595200  0.91444323  0.02674881     0.30600
H743        H  0.48198290  0.93729833  0.08810837     0.38200
H744        H  0.47931388  0.11987827  0.90779540     0.30000
H745        H  0.41354015  0.94030912  0.91980476     0.30100
H746        H  0.38829805  0.09795396  0.99131143     0.30400
C747        C  0.49996717  0.27607664  0.13564808    -0.03200
Zr748      Zr  0.45106788  0.53766332  0.96186063     2.17500
O749        O  0.39609786  0.56969947  0.96167787    -0.52000
O750        O  0.44329013  0.51845781  0.90076960    -0.75200
O751        O  0.45502081  0.60031011  0.94261768    -0.82000
O752        O  0.40967879  0.45602128  0.99550649    -0.83700
O753        O  0.51132601  0.61447993  0.94856652    -0.79400
O754        O  0.39639621  0.50711675  0.96603278    -0.91000
O755        O  0.48046909  0.47420468  0.88438922    -0.77000
O756        O  0.50435866  0.53126826  0.93457827    -0.86400
O757        O  0.46574026  0.47501325  0.95856762    -0.86100
O758        O  0.49011974  0.57172044  0.00080969    -0.72900
O759        O  0.45363498  0.51859040  0.02169837    -0.85000
Zr760      Zr  0.56469816  0.48427679  0.03013789     2.26400
Zr761      Zr  0.54315674  0.56452708  0.97303380     2.06300
Zr762      Zr  0.46932779  0.45634243  0.01757564     2.10000
Zr763      Zr  0.52018657  0.46873758  0.93397835     1.78800
O764        O  0.44684225  0.45252277  0.07544572    -0.93800
O765        O  0.55456049  0.48227015  0.88479846    -0.41600
O766        O  0.52430403  0.44968764  0.99293696    -0.78300
O767        O  0.56098213  0.50262255  0.97008918    -0.97000
O768        O  0.54858889  0.54639176  0.03270707    -0.90300
O769        O  0.50979994  0.48859479  0.05562553    -0.93100
C770        C  0.45478795  0.49518507  0.87863803     1.00600
C771        C  0.38836422  0.47689900  0.97880176     1.13600
C772        C  0.47993538  0.62241034  0.94058264     1.04400
O773        O  0.56306877  0.56962401  0.91409450    -0.95300
O774        O  0.60335577  0.56549319  0.98571752    -0.91000
O775        O  0.61835209  0.51763180  0.01951371    -0.84100
C776        C  0.62559488  0.54597900  0.00226975     1.11000
O777        O  0.44946667  0.59397040  0.07071126    -0.97200
Zr778      Zr  0.49530469  0.55055174  0.05936110     1.88900
O779        O  0.57992915  0.50276601  0.09037737    -0.73900
O780        O  0.57273447  0.61876116  0.99496332    -0.53100
O781        O  0.52286768  0.60769130  0.07581844    -0.97800
O782        O  0.45930061  0.53739899  0.10733461    -0.55000
O783        O  0.53418824  0.53491012  0.10894010    -0.74400
C784        C  0.56317679  0.51863605  0.11438814     0.97900
O785        O  0.61317335  0.44254411  0.02581958    -0.63200
O786        O  0.44056081  0.39823952  0.01291178    -0.58000
O787        O  0.55224595  0.42785760  0.05989952    -0.94700
O788        O  0.50900224  0.40657202  0.02430894    -0.93100
O789        O  0.49724277  0.40879595  0.92095459    -0.93500
O790        O  0.56554452  0.42382305  0.92717268    -0.92300
C791        C  0.53002827  0.40341673  0.05083287     1.16800
H792        H  0.44890237  0.46128403  0.94457067     0.32700
H793        H  0.58307313  0.50017279  0.96013307     0.43600
H794        H  0.51074428  0.47859403  0.07870359     0.37100
H795        H  0.48338008  0.59677226  0.00294901     0.33600
H796        H  0.54205181  0.50213375  0.87262764     0.25400
H797        H  0.56959587  0.63653686  0.97615188     0.31300
H798        H  0.50762954  0.62671669  0.06566508     0.37200
H799        H  0.49680366  0.39746782  0.94410867     0.31700
H800        H  0.45083855  0.38493227  0.99313909     0.30600
H801        H  0.42845691  0.47113997  0.07573088     0.32200
H802        H  0.46739930  0.55379432  0.12698178     0.31200
H803        H  0.57873937  0.42428539  0.95017451     0.35200
H804        H  0.60287614  0.41877356  0.01970217     0.27900
H805        H  0.39124297  0.57724525  0.93716917     0.32200
H806        H  0.44619522  0.60814312  0.04915085     0.35000
H807        H  0.44844057  0.38503968  0.03417259     0.27600
H808        H  0.62413895  0.44914563  0.00419357     0.40500
H809        H  0.57211237  0.59440250  0.91363885     0.30600
H810        H  0.57555952  0.49363758  0.89559435     0.38200
H811        H  0.46681665  0.51313218  0.11499171     0.30000
H812        H  0.55913355  0.62818268  0.01438121     0.30100
H813        H  0.40035465  0.59234446  0.97557400     0.30400
Zr814      Zr  0.05753018  0.45638288  0.44404932     2.17500
O815        O  0.10543203  0.41678600  0.46138933    -0.52000
O816        O  0.07048891  0.46627557  0.38434529    -0.75200
O817        O  0.04080813  0.39864040  0.41183151    -0.82000
O818        O  0.09165978  0.54680451  0.47387306    -0.83700
O819        O  0.99643441  0.37480687  0.43840440    -0.79400
O820        O  0.10941228  0.49691623  0.44453576    -0.91000
O821        O  0.02463305  0.49843252  0.36175751    -0.77000
O822        O  0.00026560  0.44947556  0.41946521    -0.86400
O823        O  0.03566959  0.51526696  0.43145454    -0.86100
O824        O  0.02431546  0.42876336  0.48743826    -0.72900
O825        O  0.05747627  0.49055107  0.49877682    -0.85000
Zr826      Zr  0.94612139  0.51583950  0.50392026     2.26400
Zr827      Zr  0.96613757  0.42510792  0.46292071     2.06300
Zr828      Zr  0.03300399  0.54825079  0.48534404     2.10000
Zr829      Zr  0.98010674  0.50758257  0.40454358     1.78800
O830        O  0.07126346  0.58068095  0.52767410    -0.93800
O831        O  0.95288264  0.46767193  0.35954877    -0.41600
O832        O  0.97691363  0.54266512  0.45872982    -0.78300
O833        O  0.94527890  0.48353475  0.44827609    -0.97000
O834        O  0.96788718  0.45733400  0.51750986    -0.90300
O835        O  0.00280378  0.52156761  0.52954996    -0.93100
C836        C  0.05465322  0.48366874  0.35974074     1.00600
C837        C  0.11442902  0.52937650  0.45770282     1.13600
C838        C  0.01886354  0.37314643  0.41549735     1.04400
O839        O  0.92995927  0.41665060  0.40900946    -0.95300
O840        O  0.90757513  0.42339043  0.48186846    -0.91000
O841        O  0.89422422  0.47866679  0.50343824    -0.84100
C842        C  0.88615527  0.44581398  0.49499773     1.11000
O843        O  0.07837023  0.42980454  0.55526822    -0.97200
Zr844      Zr  0.02524568  0.46301181  0.54156467     1.88900
O845        O  0.94256973  0.50725661  0.56675987    -0.73900
O846        O  0.95442958  0.36982693  0.49305162    -0.53100
O847        O  0.01286689  0.40638447  0.56868486    -0.97800
O848        O  0.06276840  0.49597896  0.58430100    -0.55000
O849        O  0.98932469  0.47640920  0.58931846    -0.74400
C850        C  0.96027994  0.49220237  0.59201521     0.97900
O851        O  0.89225889  0.54747321  0.48960568    -0.63200
O852        O  0.02753139  0.59574665  0.44248082    -0.58000
O853        O  0.95119300  0.57990963  0.52351506    -0.94700
O854        O  0.00547741  0.59758193  0.51496564    -0.93100
O855        O  0.98567646  0.56510215  0.37638550    -0.93500
O856        O  0.92547179  0.53410926  0.38388355    -0.92300
C857        C  0.97553712  0.60327563  0.52587268     1.16800
H858        H  0.05034881  0.52785421  0.41655417     0.32700
H859        H  0.92186521  0.48217025  0.43865665     0.43600
H860        H  0.00336760  0.53667113  0.55068791     0.37100
H861        H  0.03327877  0.40483242  0.49198188     0.33600
H862        H  0.95031259  0.48239259  0.33829209     0.25400
H863        H  0.97685483  0.35739388  0.49695909     0.31300
H864        H  0.02542213  0.40764423  0.59202795     0.37200
H865        H  0.97965389  0.55991289  0.35114620     0.31700
H866        H  0.03469968  0.61804275  0.45561808     0.30600
H867        H  0.06619253  0.57114463  0.55076065     0.32200
H868        H  0.06261014  0.48196517  0.60599573     0.31200
H869        H  0.91979405  0.55176682  0.40273448     0.35200
H870        H  0.88832266  0.56380899  0.51001788     0.27900
H871        H  0.12107866  0.41787383  0.44195801     0.32200
H872        H  0.08973322  0.42795585  0.53273944     0.35000
H873        H  0.04567900  0.59085922  0.42590367     0.27600
H874        H  0.89744271  0.56362442  0.47044580     0.40500
H875        H  0.90593013  0.41798487  0.41587201     0.30600
H876        H  0.97070897  0.44946734  0.35401556     0.38200
H877        H  0.05019429  0.51855860  0.58993431     0.30000
H878        H  0.94859956  0.37809937  0.51694170     0.30100
H879        H  0.09596182  0.39214558  0.45939352     0.30400
Zr880      Zr  0.03744675  0.49272609  0.92545605     2.17500
O881        O  0.06988268  0.50781446  0.87536527    -0.52000
O882        O  0.03374880  0.42867190  0.90868564    -0.75200
O883        O  0.09791695  0.47264681  0.93608433    -0.82000
O884        O  0.95231074  0.52671297  0.88101709    -0.83700
O885        O  0.11207127  0.47846845  0.99478186    -0.79400
O886        O  0.00206932  0.49679209  0.86966341    -0.91000
O887        O  0.99737240  0.40264353  0.94429026    -0.77000
O888        O  0.03905236  0.46093857  0.97886046    -0.86400
O889        O  0.97985614  0.47918846  0.93712250    -0.86100
O890        O  0.06260859  0.53444156  0.96922295    -0.72900
O891        O  0.00747751  0.55000757  0.93062963    -0.85000
Zr892      Zr  0.97528392  0.54510275  0.04011619     2.26400
Zr893      Zr  0.06252273  0.50225518  0.02273508     2.06300
Zr894      Zr  0.94991172  0.53541183  0.94326229     2.10000
Zr895      Zr  0.98155824  0.44735831  0.98993064     1.78800
O896        O  0.92742258  0.58908594  0.91417209    -0.93800
O897        O  0.00890756  0.40022977  0.02540637    -0.41600
O898        O  0.95032430  0.50345065  0.99663310    -0.78300
O899        O  0.00517943  0.48773535  0.03560759    -0.97000
O900        O  0.03299057  0.55842928  0.02880436    -0.90300
O901        O  0.97380994  0.57652446  0.98656187    -0.93100
C902        C  0.01671077  0.40149612  0.91796095     1.00600
C903        C  0.97234744  0.51031799  0.86037907     1.13600
C904        C  0.11901944  0.46956298  0.96330703     1.04400
O905        O  0.07795923  0.44658686  0.05240645    -0.95300
O906        O  0.06030016  0.51990102  0.08365643    -0.91000
O907        O  0.01037453  0.54902028  0.09524588    -0.84100
C908        C  0.04070760  0.53735349  0.10414047     1.11000
O909        O  0.06945352  0.61392855  0.93415149    -0.97200
Zr910      Zr  0.03128278  0.59033086  0.97608765     1.88900
O911        O  0.97524213  0.60923915  0.05573219    -0.73900
O912        O  0.11424894  0.53329946  0.04508501    -0.53100
O913        O  0.08391832  0.61572540  0.00343194    -0.97800
O914        O  0.00323282  0.63718201  0.94071298    -0.55000
O915        O  0.01417747  0.63329639  0.02228859    -0.74400
C916        C  0.99277491  0.63603909  0.04664519     0.97900
O917        O  0.94371465  0.52074332  0.08703901    -0.63200
O918        O  0.90194176  0.49737632  0.92308546    -0.58000
O919        O  0.91547059  0.56585751  0.03226486    -0.94700
O920        O  0.90128370  0.55914680  0.97365582    -0.93100
O921        O  0.92549348  0.42767645  0.96592950    -0.93500
O922        O  0.94437318  0.42069612  0.03087986    -0.92300
C923        C  0.89434380  0.56840041  0.00517533     1.16800
H924        H  0.96909001  0.46451449  0.91838834     0.32700
H925        H  0.00538422  0.47618446  0.05791075     0.43600
H926        H  0.95984685  0.59802957  0.98766933     0.37100
H927        H  0.08575970  0.53978370  0.96387703     0.33600
H928        H  0.03224427  0.39759524  0.01680131     0.25400
H929        H  0.13080206  0.51410425  0.05240580     0.31300
H930        H  0.08144385  0.61436212  0.02905203     0.37200
H931        H  0.92973883  0.41561424  0.94305409     0.31700
H932        H  0.88914378  0.49350883  0.94425262     0.30600
H933        H  0.90360418  0.58295979  0.90605918     0.32200
H934        H  0.98294289  0.64491992  0.95349758     0.31200
H935        H  0.94039758  0.44023763  0.04849726     0.35200
H936        H  0.93358300  0.54210191  0.09892480     0.27900
H937        H  0.07806319  0.48428011  0.86589365     0.32200
H938        H  0.07101523  0.64013834  0.93970201     0.35000
H939        H  0.88673991  0.51310602  0.90832109     0.27600
H940        H  0.92394539  0.50827493  0.07485766     0.40500
H941        H  0.09169535  0.45429381  0.07391596     0.30600
H942        H  0.01255328  0.41114773  0.04933103     0.38200
H943        H  0.99358086  0.62425623  0.91935718     0.30000
H944        H  0.12382942  0.54394936  0.02433670     0.30100
H945        H  0.09080531  0.51982257  0.88557484     0.30400
C946        C  0.12744072  0.51818601  0.23211770    -0.03200
Zr947      Zr  0.55052400  0.53765355  0.48146613     2.17500
O948        O  0.59642352  0.57971172  0.49806028    -0.52000
O949        O  0.55997943  0.52791401  0.42000598    -0.75200
O950        O  0.60599424  0.50398439  0.48535420    -0.82000
O951        O  0.48139176  0.60808199  0.45607090    -0.83700
O952        O  0.59581242  0.45222959  0.51316358    -0.79400
O953        O  0.53905613  0.59717308  0.45690977    -0.91000
O954        O  0.52824157  0.48000056  0.39953438    -0.77000
O955        O  0.54131976  0.47432586  0.47626802    -0.86400
O956        O  0.49728259  0.52854671  0.44838253    -0.86100
O957        O  0.54977564  0.51866168  0.54105274    -0.72900
O958        O  0.50726858  0.56805931  0.51384737    -0.85000
Zr959      Zr  0.44263014  0.47398485  0.53513784     2.26400
Zr960      Zr  0.53911199  0.45545837  0.53516354     2.06300
Zr961      Zr  0.45431113  0.55735449  0.48085270     2.10000
Zr962      Zr  0.48832120  0.46545968  0.44364050     1.78800
O963        O  0.43077448  0.61693405  0.49452445    -0.93800
O964        O  0.51460873  0.40689636  0.43093715    -0.41600
O965        O  0.44372919  0.49396075  0.47568636    -0.78300
O966        O  0.48607116  0.44436772  0.50199607    -0.97000
O967        O  0.49584282  0.48380622  0.56832982    -0.90300
O968        O  0.45191674  0.53754981  0.53959289    -0.93100
C969        C  0.55045731  0.50467028  0.39598829     1.00600
C970        C  0.51203074  0.61651089  0.44966631     1.13600
C971        C  0.61528853  0.47266818  0.49689179     1.04400
O972        O  0.56646003  0.39603246  0.53438994    -0.95300
O973        O  0.51126531  0.40418210  0.55772817    -0.91000
O974        O  0.45438759  0.41496455  0.56301725    -0.84100
C975        C  0.48181911  0.39523986  0.56751228     1.11000
O976        O  0.54116819  0.59869578  0.58783867    -0.97200
Zr977      Zr  0.50464830  0.54729856  0.57226550     1.88900
O978        O  0.43093497  0.48808616  0.59553637    -0.73900
O979        O  0.57188866  0.46543335  0.59087501    -0.53100
O980        O  0.54305373  0.53600140  0.62350564    -0.97800
O981        O  0.47434323  0.60378530  0.58487609    -0.55000
O982        O  0.46732496  0.53175419  0.61757615    -0.74400
C983        C  0.44265367  0.50979135  0.62003003     0.97900
O984        O  0.39822603  0.42993092  0.51951733    -0.63200
O985        O  0.42689642  0.55529603  0.42167788    -0.58000
O986        O  0.38598042  0.50547442  0.52635848    -0.94700
O987        O  0.39485389  0.55396004  0.49288983    -0.93100
O988        O  0.44955866  0.48173466  0.39410004    -0.93500
O989        O  0.44824840  0.41745549  0.42615021    -0.92300
C990        C  0.37565107  0.53433879  0.51029653     1.16800
H991        H  0.49681613  0.53896107  0.42554659     0.32700
H992        H  0.48173248  0.41890551  0.49997333     0.43600
H993        H  0.43373668  0.54977660  0.55147313     0.37100
H994        H  0.57172411  0.52318315  0.55318614     0.33600
H995        H  0.53313355  0.41178853  0.41519259     0.25400
H996        H  0.55470589  0.46586227  0.60891956     0.31300
H997        H  0.53604055  0.55379674  0.64168343     0.37200
H998        H  0.45234933  0.46227887  0.37610143     0.31700
H999        H  0.40449990  0.54372939  0.42405829     0.30600
H1000       H  0.41500543  0.62259888  0.47406429     0.32200
H1001       H  0.45182767  0.59685328  0.59303220     0.31200
H1002       H  0.44638717  0.40308410  0.44740731     0.35200
H1003       H  0.38071736  0.43407039  0.53699511     0.27900
H1004       H  0.61260374  0.57706651  0.47908944     0.32200
H1005       H  0.55820787  0.59834276  0.56961299     0.35000
H1006       H  0.42105172  0.58074108  0.41658276     0.27600
H1007       H  0.38718862  0.43812699  0.49704474     0.40500
H1008       H  0.56373453  0.38730180  0.50959266     0.30600
H1009       H  0.52672745  0.40016138  0.45338420     0.38200
H1010       H  0.46892796  0.61423901  0.56157348     0.30000
H1011       H  0.58509610  0.44275474  0.59459535     0.30100
H1012       H  0.60873891  0.56923406  0.51887802     0.30400
C1013       C  0.98751136  0.74024615  0.61162663    -0.03200
Zr1014     Zr  0.21061357  0.77399086  0.67540753     2.17500
O1015       O  0.21233346  0.81078522  0.62367810    -0.52000
O1016       O  0.14982482  0.75792500  0.66815505    -0.75200
O1017       O  0.21410247  0.73354697  0.62208990    -0.82000
O1018       O  0.20162525  0.85732685  0.73254382    -0.83700
O1019       O  0.24489223  0.68493818  0.64110857    -0.79400
O1020       O  0.18113955  0.83223584  0.68039116    -0.91000
O1021       O  0.13394416  0.73399594  0.71896068    -0.77000
O1022       O  0.20121631  0.71774478  0.70155889    -0.86400
O1023       O  0.19505334  0.78631775  0.73453744    -0.86100
O1024       O  0.26624600  0.74520817  0.67702783    -0.72900
O1025       O  0.25746559  0.80810464  0.70476110    -0.85000
Zr1026     Zr  0.28469837  0.73266651  0.79415788     2.26400
Zr1027     Zr  0.25620092  0.68954668  0.70396965     2.06300
Zr1028     Zr  0.24179353  0.81925570  0.76356925     2.10000
Zr1029     Zr  0.18481245  0.73072257  0.75989748     1.78800
O1030       O  0.28615135  0.86188075  0.75188775    -0.93800
O1031       O  0.16266927  0.66967148  0.76005102    -0.41600
O1032       O  0.23020644  0.76395221  0.79126548    -0.78300
O1033       O  0.23885362  0.69932100  0.76297395    -0.97000
O1034       O  0.30214634  0.72063719  0.73567477    -0.90300
O1035       O  0.29526635  0.78878721  0.76747120    -0.93100
C1036       C  0.12738328  0.74460830  0.68738977     1.00600
C1037       C  0.18178594  0.85699402  0.70476214     1.13600
C1038       C  0.22885952  0.70253659  0.61668762     1.04400
O1039       O  0.21344870  0.64227792  0.69939474    -0.95300
O1040       O  0.28263311  0.64274212  0.73677152    -0.91000
O1041       O  0.30063937  0.66668883  0.79040716    -0.84100
C1042       C  0.29752464  0.64031549  0.76717124     1.11000
O1043       O  0.32152806  0.79829293  0.65080962    -0.97200
Zr1044     Zr  0.31168927  0.77645554  0.70899339     1.88900
O1045       O  0.34621447  0.74709387  0.79836819    -0.73900
O1046       O  0.30070644  0.65422410  0.67594560    -0.53100
O1047       O  0.34923499  0.73645388  0.67653457    -0.97800
O1048       O  0.33823803  0.83577559  0.71178727    -0.55000
O1049       O  0.36279453  0.77072892  0.74761953    -0.74400
C1050       C  0.36882424  0.76019788  0.77908660     0.97900
O1051       O  0.29229494  0.70789331  0.85264863    -0.63200
O1052       O  0.22624834  0.87238163  0.79902859    -0.58000
O1053       O  0.27290872  0.77239767  0.84756991    -0.94700
O1054       O  0.24919732  0.82430069  0.82693909    -0.93100
O1055       O  0.14246059  0.76741533  0.78949413    -0.93500
O1056       O  0.17461643  0.71177137  0.81897531    -0.92300
C1057       C  0.26002333  0.80467115  0.85245540     1.16800
H1058       H  0.17330604  0.79863737  0.73510455     0.32700
H1059       H  0.23557404  0.67659376  0.77397799     0.43600
H1060       H  0.31163710  0.80321966  0.78127782     0.37100
H1061       H  0.27397716  0.74175093  0.65358891     0.33600
H1062       H  0.13856898  0.67287290  0.76637261     0.25400
H1063       H  0.28852154  0.63488171  0.66200787     0.31300
H1064       H  0.37244902  0.74655198  0.68111540     0.37200
H1065       H  0.12138204  0.75279282  0.78787589     0.31700
H1066       H  0.23303979  0.89349495  0.78588128     0.30600
H1067       H  0.29586148  0.86977364  0.77541067     0.32200
H1068       H  0.35879917  0.83304304  0.69790316     0.31200
H1069       H  0.19568393  0.71843845  0.83327743     0.35200
H1070       H  0.27801855  0.68600634  0.85183388     0.27900
H1071       H  0.19625193  0.79938517  0.60574191     0.32200
H1072       H  0.29913721  0.80859368  0.64231842     0.35000
H1073       H  0.20093756  0.87368768  0.79833260     0.27600
H1074       H  0.31627540  0.69883235  0.85451347     0.40500
H1075       H  0.22529111  0.62031777  0.70826275     0.30600
H1076       H  0.16080419  0.66178059  0.73500110     0.38200
H1077       H  0.34773382  0.83895111  0.73632715     0.30000
H1078       H  0.30963796  0.67016756  0.65830399     0.30100
H1079       H  0.23541049  0.80628348  0.61494816     0.30400
C1080       C  0.49729867  0.75593929  0.86721798    -0.03200
C1081       C  0.44335547  0.79419781  0.83883597    -0.02500
C1082       C  0.46674696  0.76334398  0.83834321     0.07200
C1083       C  0.45972464  0.73747489  0.80957530    -0.02600
C1084       C  0.43050652  0.74122704  0.78624672    -0.02600
C1085       C  0.40404755  0.76490746  0.79498053     0.07300
C1086       C  0.41091402  0.79229076  0.82032742    -0.02800
Br1087     Br  0.37519820  0.82757255  0.82920949    -0.01400
Br1088     Br  0.45356241  0.84239770  0.85733200    -0.01400
Br1089     Br  0.42597541  0.71336754  0.74261034    -0.01400
Br1090     Br  0.48443755  0.69250132  0.80304633    -0.01400
C1091       C  0.03618903  0.77028723  0.65436356    -0.02500
C1092       C  0.02348532  0.73816224  0.63531215     0.07200
C1093       C  0.04798985  0.70786906  0.63592150    -0.02600
C1094       C  0.07872666  0.70902635  0.65788324    -0.02600
C1095       C  0.09130484  0.74178159  0.67196465     0.07300
C1096       C  0.07019582  0.77241461  0.66944899    -0.02800
Br1097     Br  0.08837541  0.81780351  0.68787445    -0.01400
Br1098     Br  0.00834784  0.81267643  0.66330806    -0.01400
Br1099     Br  0.10586772  0.66577599  0.66701059    -0.01400
Br1100     Br  0.04973535  0.66767995  0.60204449    -0.01400
C1101       C  0.04215465  0.53023910  0.16920648    -0.02500
C1102       C  0.05620680  0.54426028  0.13989710     0.07200
C1103       C  0.09018147  0.55492725  0.14211735    -0.02600
C1104       C  0.11284502  0.54353112  0.16956335    -0.02600
C1105       C  0.10049064  0.52823179  0.20061102     0.07300
C1106       C  0.06357617  0.52094707  0.19904678    -0.02800
Br1107     Br  0.03987599  0.49017306  0.23025986    -0.01400
Br1108     Br  0.99302122  0.52320269  0.16721974    -0.01400
Br1109     Br  0.16002311  0.55348834  0.16282107    -0.01400
Br1110     Br  0.10392058  0.58895841  0.10812744    -0.01400
C1111       C  0.98133439  0.70394520  0.54751691    -0.02500
C1112       C  0.98196347  0.70499097  0.58599574     0.07200
C1113       C  0.97329765  0.67110836  0.60131878    -0.02600
C1114       C  0.96670219  0.63945334  0.58057524    -0.02600
C1115       C  0.97070754  0.63865141  0.54454006     0.07300
C1116       C  0.97727362  0.67079140  0.52802335    -0.02800
Br1117     Br  0.97844117  0.66849552  0.47710635    -0.01400
Br1118     Br  0.98074605  0.74495268  0.51674048    -0.01400
Br1119     Br  0.95607754  0.59474877  0.60192236    -0.01400
Br1120     Br  0.97628266  0.66297891  0.65131629    -0.01400
C1121       C  0.08808456  0.53196386  0.28461374    -0.02500
C1122       C  0.10791419  0.50546677  0.26524656     0.07200
C1123       C  0.10924215  0.46987978  0.28011829    -0.02600
C1124       C  0.08883545  0.46208768  0.30861879    -0.02600
C1125       C  0.07354308  0.49003565  0.32804577     0.07300
C1126       C  0.07725134  0.52529901  0.31792872    -0.02800
Br1127     Br  0.06778157  0.56536888  0.34993966    -0.01400
Br1128     Br  0.06386922  0.57333157  0.26569333    -0.01400
Br1129     Br  0.08083008  0.41294565  0.32095983    -0.01400
Br1130     Br  0.13868861  0.43030048  0.26677721    -0.01400
C1131       C  0.49514332  0.68707070  0.94445648    -0.02500
C1132       C  0.47391370  0.66007639  0.92923635     0.07200
C1133       C  0.45113595  0.66927641  0.90134151    -0.02600
C1134       C  0.45437305  0.70295264  0.88537721    -0.02600
C1135       C  0.48560222  0.72417268  0.89168966     0.07300
C1136       C  0.50397776  0.71668567  0.92474002    -0.02800
Br1137     Br  0.54432495  0.74141647  0.94374548    -0.01400
Br1138     Br  0.51021415  0.68378110  0.99350943    -0.01400
Br1139     Br  0.41007396  0.72062095  0.86721836    -0.01400
Br1140     Br  0.41217452  0.63861198  0.88922774    -0.01400
C1141       C  0.50712350  0.34561352  0.12600204    -0.02500
C1142       C  0.50736287  0.30904135  0.11099042     0.07200
C1143       C  0.51519501  0.30607215  0.07426334    -0.02600
C1144       C  0.52675810  0.33649550  0.05672540    -0.02600
C1145       C  0.52595049  0.37123086  0.07233688     0.07300
C1146       C  0.51435037  0.37571811  0.10616624    -0.02800
Br1147     Br  0.50699072  0.42401683  0.12544850    -0.01400
Br1148     Br  0.50069176  0.35809051  0.17489481    -0.01400
Br1149     Br  0.54525894  0.33102020  0.01080770    -0.01400
Br1150     Br  0.50716677  0.26415675  0.04338611    -0.01400
C1151       C  0.53642568  0.81179915  0.89209725    -0.02500
C1152       C  0.50552871  0.79064645  0.89268288     0.07200
C1153       C  0.48325373  0.80238473  0.91988728    -0.02600
C1154       C  0.48985225  0.83452644  0.94008339    -0.02600
C1155       C  0.51327015  0.86009133  0.92927894     0.07300
C1156       C  0.53700276  0.84793525  0.90509828    -0.02800
Br1157     Br  0.57097071  0.87974206  0.88900979    -0.01400
Br1158     Br  0.58221294  0.79216357  0.88604358    -0.01400
Br1159     Br  0.46781775  0.84236908  0.98396099    -0.01400
Br1160     Br  0.44088633  0.77935627  0.92933590    -0.01400
C1161       C  0.52284097  0.21510777  0.10560988    -0.02500
C1162       C  0.49432549  0.23704639  0.11614424     0.07200
C1163       C  0.46166508  0.21828263  0.11170336    -0.02600
C1164       C  0.45731546  0.18852534  0.08763636    -0.02600
C1165       C  0.48587900  0.16734693  0.07903980     0.07300
C1166       C  0.51808201  0.17912727  0.09340817    -0.02800
Br1167     Br  0.55432594  0.14456579  0.10404565    -0.01400
Br1168     Br  0.56922216  0.23166966  0.10379737    -0.01400
Br1169     Br  0.41163025  0.17594966  0.06972353    -0.01400
Br1170     Br  0.42651437  0.21841072  0.14562187    -0.01400
C1171       C  0.33665155  0.07354970  0.43564404    -0.02500
C1172       C  0.34618738  0.05098356  0.46335558     0.07200
C1173       C  0.32503830  0.05116453  0.49197799    -0.02600
C1174       C  0.29324956  0.07094777  0.49129912    -0.02600
C1175       C  0.28344746  0.09545691  0.46334369     0.07300
C1176       C  0.31018781  0.09967035  0.43890003    -0.02800
Br1177     Br  0.32372508  0.14542672  0.42064132    -0.01400
Br1178     Br  0.36286025  0.07155511  0.39432695    -0.01400
Br1179     Br  0.26432120  0.06065276  0.52873484    -0.01400
Br1180     Br  0.33996910  0.02289353  0.53196429    -0.01400
C1181       C  0.96486011  0.80587724  0.58888560    -0.02500
C1182       C  0.99043700  0.77696677  0.59041858     0.07200
C1183       C  0.02162630  0.78494600  0.57342588    -0.02600
C1184       C  0.02590444  0.81813522  0.55682451    -0.02600
C1185       C  0.99776727  0.84137220  0.54975606     0.07300
C1186       C  0.96664607  0.83352452  0.56439850    -0.02800
Br1187     Br  0.92514424  0.85993567  0.55025211    -0.01400
Br1188     Br  0.93076223  0.81735667  0.62301846    -0.01400
Br1189     Br  0.07120979  0.83213678  0.54499477    -0.01400
Br1190     Br  0.05821874  0.75016861  0.56649969    -0.01400
C1191       C  0.18196121  0.10779559  0.43898042    -0.02500
C1192       C  0.21513988  0.09130100  0.44795069     0.07200
C1193       C  0.21610423  0.05204991  0.44421833    -0.02600
C1194       C  0.18509305  0.03235045  0.44108738    -0.02600
C1195       C  0.15355526  0.05006050  0.43523870     0.07300
C1196       C  0.15299278  0.08693353  0.42912431    -0.02800
Br1197     Br  0.11084431  0.10961517  0.41074003    -0.01400
Br1198     Br  0.17045425  0.15794802  0.44733534    -0.01400
Br1199     Br  0.18491585  0.98026454  0.44290179    -0.01400
Br1200     Br  0.25634624  0.02164447  0.43849508    -0.01400
C1201       C  0.40001429  0.00178257  0.13464165    -0.02500
C1202       C  0.43177059  0.01802314  0.13895011     0.07200
C1203       C  0.44462288  0.02863128  0.17260736    -0.02600
C1204       C  0.42542984  0.02207013  0.20208910    -0.02600
C1205       C  0.38896040  0.01425292  0.19717687     0.07300
C1206       C  0.37716239  0.00518480  0.16124261    -0.02800
Br1207     Br  0.33019125  0.00124669  0.14330144    -0.01400
Br1208     Br  0.38850760  0.97329921  0.09214216    -0.01400
Br1209     Br  0.45456312  0.01709787  0.24452285    -0.01400
Br1210     Br  0.48860693  0.05218016  0.17798433    -0.01400
C1211       C  0.40643090  0.97861251  0.31609346    -0.02500
C1212       C  0.42162703  0.00973097  0.33135717     0.07200
C1213       C  0.41434738  0.04309142  0.31572023    -0.02600
C1214       C  0.39501402  0.04474678  0.28304167    -0.02600
C1215       C  0.38007240  0.01268499  0.26619910     0.07300
C1216       C  0.38201078  0.98105088  0.28769810    -0.02800
Br1217     Br  0.34716021  0.94428472  0.28967748    -0.01400
Br1218     Br  0.41971646  0.93138346  0.33326021    -0.01400
Br1219     Br  0.39370261  0.09160150  0.26203400    -0.01400
Br1220     Br  0.43221376  0.08689319  0.33846418    -0.01400
C1221       C  0.21612122  0.45718144  0.95920211    -0.02500
C1222       C  0.22080377  0.41821986  0.96203483     0.07200
C1223       C  0.18928954  0.39821279  0.96398493    -0.02600
C1224       C  0.15683337  0.41538697  0.96413372    -0.02600
C1225       C  0.15327963  0.45239441  0.95950739     0.07300
C1226       C  0.18264610  0.47317219  0.95709457    -0.02800
Br1227     Br  0.17586395  0.52477959  0.95270795    -0.01400
Br1228     Br  0.25226421  0.49260340  0.96224125    -0.01400
Br1229     Br  0.11587031  0.38810801  0.97118638    -0.01400
Br1230     Br  0.18696097  0.34628699  0.96170676    -0.01400
C1231       C  0.30462597  0.43761078  0.93847436    -0.02500
C1232       C  0.29061483  0.42109618  0.96852293     0.07200
C1233       C  0.31167890  0.42650635  0.00102343    -0.02600
C1234       C  0.33647821  0.45358161  0.00413932    -0.02600
C1235       C  0.35238569  0.46412162  0.97447557     0.07300
C1236       C  0.33673157  0.45540463  0.94140433    -0.02800
Br1237     Br  0.36027226  0.46704008  0.90017992    -0.01400
Br1238     Br  0.28109908  0.44038560  0.89293870    -0.01400
Br1239     Br  0.35180089  0.47327478  0.04987024    -0.01400
Br1240     Br  0.32244120  0.39158738  0.03717651    -0.01400
C1241       C  0.21116686  0.45806164  0.21823382    -0.02500
C1242       C  0.19776342  0.42795638  0.19982461     0.07200
C1243       C  0.16505674  0.43078165  0.18304402    -0.02600
C1244       C  0.14225744  0.45880498  0.19288751    -0.02600
C1245       C  0.15396770  0.48900364  0.21544659     0.07300
C1246       C  0.19130707  0.49011055  0.22051343    -0.02800
Br1247     Br  0.22024175  0.53215095  0.21926250    -0.01400
Br1248     Br  0.25664009  0.45536999  0.24103364    -0.01400
Br1249     Br  0.09547559  0.44905536  0.17726936    -0.01400
Br1250     Br  0.15099494  0.39330019  0.14870765    -0.01400
C1251       C  0.25710578  0.15476310  0.36550936    -0.02500
C1252       C  0.24891915  0.19119609  0.36770964     0.07200
C1253       C  0.24114821  0.20618144  0.40046553    -0.02600
C1254       C  0.24231123  0.18466447  0.43113877    -0.02600
C1255       C  0.24673457  0.14533540  0.42867029     0.07300
C1256       C  0.25065046  0.13168404  0.39292497    -0.02800
Br1257     Br  0.24884238  0.08202487  0.37689136    -0.01400
Br1258     Br  0.28561259  0.13861448  0.32816830    -0.01400
Br1259     Br  0.23291226  0.21328119  0.47270298    -0.01400
Br1260     Br  0.22823534  0.25690757  0.40235320    -0.01400
C1261       C  0.40379800  0.30855662  0.14087238    -0.02500
C1262       C  0.39722159  0.30247229  0.17561092     0.07200
C1263       C  0.42437763  0.29455176  0.19990710    -0.02600
C1264       C  0.45825934  0.28986546  0.18914054    -0.02600
C1265       C  0.46468313  0.28805889  0.15195953     0.07300
C1266       C  0.43593189  0.29883274  0.12832964    -0.02800
Br1267     Br  0.43533794  0.29528120  0.07758366    -0.01400
Br1268     Br  0.36676591  0.32655039  0.10963000    -0.01400
Br1269     Br  0.49247506  0.29032806  0.22822250    -0.01400
Br1270     Br  0.41400876  0.29046649  0.24876637    -0.01400
C1271       C  0.31030887  0.09661240  0.19153757    -0.02500
C1272       C  0.28933687  0.10537121  0.21872986     0.07200
C1273       C  0.28746644  0.08181239  0.24632877    -0.02600
C1274       C  0.31219221  0.05389622  0.25085543    -0.02600
C1275       C  0.33751423  0.04715079  0.22511632     0.07300
C1276       C  0.33769366  0.07271114  0.19712555    -0.02800
Br1277     Br  0.37711838  0.08867782  0.17308933    -0.01400
Br1278     Br  0.30203086  0.11966450  0.14683397    -0.01400
Br1279     Br  0.30746349  0.02529499  0.29168058    -0.01400
Br1280     Br  0.24540564  0.08140701  0.27062892    -0.01400
C1281       C  0.26298641  0.32123003  0.03879507    -0.02500
C1282       C  0.25399156  0.34110590  0.06874400     0.07200
C1283       C  0.24425862  0.37733057  0.06539450    -0.02600
C1284       C  0.24541484  0.39440040  0.03270010    -0.02600
C1285       C  0.25401246  0.37463102  0.00062090     0.07300
C1286       C  0.25970130  0.33606690  0.00488085    -0.02800
Br1287     Br  0.25796055  0.29850961  0.96824095    -0.01400
Br1288     Br  0.28330436  0.27370200  0.04520055    -0.01400
Br1289     Br  0.24048641  0.44640671  0.03671996    -0.01400
Br1290     Br  0.23172603  0.40456215  0.10710758    -0.01400
C1291       C  0.04381783  0.29991433  0.34858530    -0.02500
C1292       C  0.01519289  0.27517698  0.34680368     0.07200
C1293       C  0.98629266  0.28696381  0.36601329    -0.02600
C1294       C  0.98670124  0.32017437  0.38520054    -0.02600
C1295       C  0.01767202  0.33981828  0.39176649     0.07300
C1296       C  0.04670640  0.32733414  0.37493080    -0.02800
Br1297     Br  0.09166887  0.34621327  0.38830174    -0.01400
Br1298     Br  0.07435530  0.30863458  0.31128012    -0.01400
Br1299     Br  0.94311763  0.33768727  0.40094711    -0.01400
Br1300     Br  0.94581233  0.25730283  0.36952441    -0.01400
C1301       C  0.01034573  0.20162107  0.38307978    -0.02500
C1302       C  0.01315647  0.20294113  0.34530725     0.07200
C1303       C  0.02052916  0.16822186  0.32844467    -0.02600
C1304       C  0.02490570  0.13630567  0.34792036    -0.02600
C1305       C  0.01455622  0.13534402  0.38274991     0.07300
C1306       C  0.00545975  0.16847276  0.39934300    -0.02800
Br1307     Br  0.98844235  0.17034196  0.44630382    -0.01400
Br1308     Br  0.02227010  0.23990239  0.41788837    -0.01400
Br1309     Br  0.04413051  0.09361069  0.32524014    -0.01400
Br1310     Br  0.02237122  0.16065438  0.27782832    -0.01400
C1311       C  0.10765141  0.22211228  0.30043974    -0.02500
C1312       C  0.10729846  0.23076072  0.26529226     0.07200
C1313       C  0.07686005  0.23788757  0.24595126    -0.02600
C1314       C  0.04559389  0.23966940  0.26260623    -0.02600
C1315       C  0.04519997  0.23547319  0.30048650     0.07300
C1316       C  0.07771643  0.22592470  0.31848328    -0.02800
Br1317     Br  0.08612605  0.22289528  0.36877142    -0.01400
Br1318     Br  0.15117277  0.20935904  0.32496506    -0.01400
Br1319     Br  0.00692032  0.24779730  0.22966618    -0.01400
Br1320     Br  0.07951523  0.24468233  0.19581427    -0.01400
C1321       C  0.88271883  0.02014964  0.15483232    -0.02500
C1322       C  0.90269980  0.01060758  0.18660810     0.07200
C1323       C  0.93949899  0.00822966  0.18308837    -0.02600
C1324       C  0.95222293  0.00218517  0.15005648    -0.02600
C1325       C  0.93226336  0.01097000  0.11999541     0.07300
C1326       C  0.89846286  0.02298690  0.12278491    -0.02800
Br1327     Br  0.87379818  0.04345518  0.08230966    -0.01400
Br1328     Br  0.83346872  0.02620027  0.15048521    -0.01400
Br1329     Br  0.99806645  0.98269813  0.14659120    -0.01400
Br1330     Br  0.97628762  0.02462309  0.21661194    -0.01400
C1331       C  0.93655002  0.97452020  0.25715132    -0.02500
C1332       C  0.91302274  0.00494848  0.25378772     0.07200
C1333       C  0.91636707  0.03303616  0.28096727    -0.02600
C1334       C  0.94595266  0.03461039  0.30312798    -0.02600
C1335       C  0.96625304  0.00380426  0.30741437     0.07300
C1336       C  0.96220593  0.97411857  0.28448833    -0.02800
Br1337     Br  0.99322241  0.93339384  0.29103977    -0.01400
Br1338     Br  0.93686355  0.93311706  0.22501724    -0.01400
Br1339     Br  0.95448469  0.07621404  0.33409442    -0.01400
Br1340     Br  0.87871944  0.05959482  0.30206085    -0.01400
C1341       C  0.82293175  0.03701806  0.23040502    -0.02500
C1342       C  0.85981982  0.03889556  0.22626226     0.07200
C1343       C  0.87356481  0.07471541  0.22506114    -0.02600
C1344       C  0.85440383  0.10438984  0.23565187    -0.02600
C1345       C  0.81942055  0.10209945  0.23796742     0.07300
C1346       C  0.80346144  0.06875039  0.23620441    -0.02800
Br1347     Br  0.75432930  0.06712562  0.24135619    -0.01400
Br1348     Br  0.79342167  0.99600000  0.21984775    -0.01400
Br1349     Br  0.87674462  0.14590787  0.25762125    -0.01400
Br1350     Br  0.91838039  0.08779656  0.21156871    -0.01400
C1351       C  0.92824732  0.28047560  0.27557535    -0.02500
C1352       C  0.91076640  0.24936935  0.26347143     0.07200
C1353       C  0.92943177  0.21734000  0.26241961    -0.02600
C1354       C  0.95620240  0.21269394  0.28792533    -0.02600
C1355       C  0.97733707  0.24292620  0.29911347     0.07300
C1356       C  0.96298908  0.27769403  0.28838187    -0.02800
Br1357     Br  0.98866889  0.32174337  0.28654431    -0.01400
Br1358     Br  0.90557222  0.32683539  0.27066225    -0.01400
Br1359     Br  0.94285654  0.17580710  0.31863709    -0.01400
Br1360     Br  0.93293548  0.19353350  0.21730491    -0.01400
C1361       C  0.56839683  0.23879001  0.20843574    -0.02500
C1362       C  0.59104378  0.26781410  0.21360291     0.07200
C1363       C  0.58383453  0.29919488  0.19536637    -0.02600
C1364       C  0.56083526  0.29775021  0.16575547    -0.02600
C1365       C  0.53264634  0.27243828  0.16338932     0.07300
C1366       C  0.53794772  0.24202308  0.18619563    -0.02800
Br1367     Br  0.50486345  0.20433191  0.18980331    -0.01400
Br1368     Br  0.57981360  0.19468565  0.23236589    -0.01400
Br1369     Br  0.58240399  0.31827887  0.12625289    -0.01400
Br1370     Br  0.61304406  0.34066922  0.20425503    -0.01400
C1371       C  0.01639581  0.30010246  0.89361845    -0.02500
C1372       C  0.01334360  0.29855136  0.85526913     0.07200
C1373       C  0.01115998  0.33362519  0.83923104    -0.02600
C1374       C  0.01493839  0.36646079  0.85932498    -0.02600
C1375       C  0.01854027  0.36667459  0.89632434     0.07300
C1376       C  0.02145443  0.33330690  0.91277966    -0.02800
Br1377     Br  0.03471758  0.33317443  0.96262556    -0.01400
Br1378     Br  0.00461427  0.26169536  0.92432332    -0.01400
Br1379     Br  0.01777125  0.41157169  0.83515660    -0.01400
Br1380     Br  0.00562624  0.33956902  0.78884598    -0.01400
C1381       C  0.04198300  0.18191101  0.89307818    -0.02500
C1382       C  0.01550648  0.15677818  0.88977039     0.07200
C1383       C  0.98708206  0.16475585  0.86693319    -0.02600
C1384       C  0.98160583  0.19961982  0.85300384    -0.02600
C1385       C  0.00932126  0.22553118  0.85345626     0.07300
C1386       C  0.04045037  0.21388588  0.87305720    -0.02800
Br1387     Br  0.08121992  0.24256461  0.87818325    -0.01400
Br1388     Br  0.07954979  0.17353988  0.92734447    -0.01400
Br1389     Br  0.93530223  0.20541322  0.83277235    -0.01400
Br1390     Br  0.95786075  0.12511835  0.85033983    -0.01400
C1391       C  0.04357380  0.22166583  0.78564419    -0.02500
C1392       C  0.04040301  0.25548295  0.80573894     0.07200
C1393       C  0.06773234  0.28087611  0.80135617    -0.02600
C1394       C  0.09007126  0.27570689  0.77388754    -0.02600
C1395       C  0.09509511  0.24143229  0.75866696     0.07300
C1396       C  0.07197913  0.21442104  0.76494116    -0.02800
Br1397     Br  0.07957988  0.16719801  0.74457818    -0.01400
Br1398     Br  0.00883698  0.18476117  0.78088146    -0.01400
Br1399     Br  0.11761459  0.31496619  0.75910404    -0.01400
Br1400     Br  0.08529926  0.31759421  0.83507353    -0.01400
C1401       C  0.29111313  0.34990783  0.92381888    -0.02500
C1402       C  0.26037862  0.37128839  0.92920631     0.07200
C1403       C  0.23575827  0.37102408  0.89871971    -0.02600
C1404       C  0.23837346  0.34538811  0.87051155    -0.02600
C1405       C  0.26643370  0.32128641  0.86889334     0.07300
C1406       C  0.29338067  0.32488720  0.89476202    -0.02800
Br1407     Br  0.33245274  0.29256527  0.89190851    -0.01400
Br1408     Br  0.33037580  0.35007719  0.95719726    -0.01400
Br1409     Br  0.20443434  0.34586509  0.83084794    -0.01400
Br1410     Br  0.20154360  0.40859357  0.88708660    -0.01400
C1411       C  0.26421773  0.15726141  0.51771743    -0.02500
C1412       C  0.23948588  0.13411806  0.49946415     0.07200
C1413       C  0.21002443  0.12677288  0.52049824    -0.02600
C1414       C  0.20390545  0.14637954  0.55267004    -0.02600
C1415       C  0.22749705  0.17162413  0.56732232     0.07300
C1416       C  0.25610795  0.17864385  0.54762236    -0.02800
Br1417     Br  0.28136180  0.22296927  0.55713879    -0.01400
Br1418     Br  0.31036720  0.16279220  0.50383792    -0.01400
Br1419     Br  0.16281241  0.13823493  0.57743293    -0.01400
Br1420     Br  0.18138031  0.08427843  0.51532298    -0.01400
C1421       C  0.45783007  0.33312003  0.57969429    -0.02500
C1422       C  0.48205265  0.36026563  0.58655707     0.07200
C1423       C  0.51009097  0.35322558  0.61009564    -0.02600
C1424       C  0.51822056  0.31795479  0.62160896    -0.02600
C1425       C  0.49432890  0.28825880  0.61430475     0.07300
C1426       C  0.46286493  0.29836379  0.59433388    -0.02800
Br1427     Br  0.42606110  0.26484804  0.58270596    -0.01400
Br1428     Br  0.41735257  0.34384837  0.54996445    -0.01400
Br1429     Br  0.56048603  0.31786691  0.65161474    -0.01400
Br1430     Br  0.53432513  0.39487942  0.63117459    -0.01400
C1431       C  0.50291872  0.21606871  0.56673763    -0.02500
C1432       C  0.50265451  0.21503211  0.60497065     0.07200
C1433       C  0.51467139  0.18068811  0.61918085    -0.02600
C1434       C  0.52943059  0.15339567  0.59803327    -0.02600
C1435       C  0.52367286  0.15287658  0.56172196     0.07300
C1436       C  0.50982197  0.18420375  0.54618719    -0.02800
Br1437     Br  0.50366326  0.18365344  0.49533666    -0.01400
Br1438     Br  0.50080713  0.25897910  0.53888847    -0.01400
Br1439     Br  0.55950018  0.11715805  0.61851079    -0.01400
Br1440     Br  0.51040633  0.16714642  0.66742882    -0.01400
C1441       C  0.42002004  0.27776081  0.69060778    -0.02500
C1442       C  0.40034629  0.24668195  0.68993916     0.07200
C1443       C  0.41231216  0.21535597  0.67297754    -0.02600
C1444       C  0.44002152  0.21651927  0.65098133    -0.02600
C1445       C  0.46327367  0.24678875  0.65339810     0.07300
C1446       C  0.45194912  0.27747916  0.67484125    -0.02800
Br1447     Br  0.47959872  0.31913739  0.68823122    -0.01400
Br1448     Br  0.40265397  0.32105355  0.71357362    -0.01400
Br1449     Br  0.43635491  0.17935157  0.61379224    -0.01400
Br1450     Br  0.38955297  0.17018660  0.67977568    -0.01400
C1451       C  0.22257836  0.86722762  0.92367371    -0.02500
C1452       C  0.25067070  0.87247248  0.95047644     0.07200
C1453       C  0.27864451  0.84638164  0.94674564    -0.02600
C1454       C  0.28157277  0.82336901  0.91596048    -0.02600
C1455       C  0.25549926  0.82200320  0.88897122     0.07300
C1456       C  0.22512718  0.84167506  0.89492738    -0.02800
Br1457     Br  0.18504823  0.83009038  0.86398018    -0.01400
Br1458     Br  0.17703654  0.88944375  0.92405022    -0.01400
Br1459     Br  0.32302943  0.79550024  0.90905249    -0.01400
Br1460     Br  0.31744306  0.84406455  0.98018672    -0.01400
C1461       C  0.30519079  0.93553348  0.95618135    -0.02500
C1462       C  0.28165780  0.93145336  0.98421393     0.07200
C1463       C  0.28483539  0.96077281  0.01104846    -0.02600
C1464       C  0.31347892  0.98465850  0.01399380    -0.02600
C1465       C  0.33839248  0.98265182  0.98946835     0.07300
C1466       C  0.33033916  0.96298081  0.95834889    -0.02800
Br1467     Br  0.35093544  0.98004847  0.91696657    -0.01400
Br1468     Br  0.30567312  0.90911076  0.91138419    -0.01400
Br1469     Br  0.31815530  0.02245529  0.04993323    -0.01400
Br1470     Br  0.25462677  0.96846054  0.04860936    -0.01400
C1471       C  0.21069639  0.95441503  0.95807414    -0.02500
C1472       C  0.21683508  0.92700936  0.98454956     0.07200
C1473       C  0.19260506  0.92918748  0.01244123    -0.02600
C1474       C  0.16346061  0.95250987  0.00988172    -0.02600
C1475       C  0.15522247  0.97228227  0.97979676     0.07300
C1476       C  0.18133183  0.97757003  0.95723205    -0.02800
Br1477     Br  0.17881497  0.01958173  0.92833052    -0.01400
Br1478     Br  0.23622274  0.95785315  0.91671236    -0.01400
Br1479     Br  0.13726867  0.96461329  0.05060108    -0.01400
Br1480     Br  0.19671012  0.90660088  0.05804238    -0.01400
C1481       C  0.27494330  0.86069598  0.07989884    -0.02500
C1482       C  0.25233792  0.83177785  0.08143646     0.07200
C1483       C  0.23250576  0.82254859  0.05082836    -0.02600
C1484       C  0.23120268  0.84517319  0.02108133    -0.02600
C1485       C  0.25423680  0.87547755  0.01829038     0.07300
C1486       C  0.27918393  0.87906643  0.04809655    -0.02800
Br1487     Br  0.32359841  0.90189734  0.04798378    -0.01400
Br1488     Br  0.30067633  0.87512495  0.12237838    -0.01400
Br1489     Br  0.19129390  0.83698571  0.99018831    -0.01400
Br1490     Br  0.20414717  0.78015896  0.05160141    -0.01400
C1491       C  0.34400483  0.91144634  0.20330991    -0.02500
C1492       C  0.30894211  0.90822985  0.20924248     0.07200
C1493       C  0.28968428  0.93937706  0.21633212    -0.02600
C1494       C  0.30469147  0.97344546  0.21532068    -0.02600
C1495       C  0.34184333  0.97678372  0.21863680     0.07300
C1496       C  0.36094840  0.94391435  0.21181727    -0.02800
Br1497     Br  0.41055759  0.93921323  0.21778373    -0.01400
Br1498     Br  0.36989939  0.87104252  0.18438532    -0.01400
Br1499     Br  0.27068376  0.00917013  0.19942076    -0.01400
Br1500     Br  0.24280480  0.93621383  0.22988374    -0.01400
C1501       C  0.13637620  0.58960308  0.24344571    -0.02500
C1502       C  0.14722558  0.55250922  0.24884813     0.07200
C1503       C  0.17415088  0.54882252  0.27688995    -0.02600
C1504       C  0.19632734  0.57851177  0.28572768    -0.02600
C1505       C  0.18533397  0.61286021  0.27591215     0.07300
C1506       C  0.15070759  0.61605240  0.26584626    -0.02800
Br1507     Br  0.12370405  0.65591946  0.28325604    -0.01400
Br1508     Br  0.10541644  0.61229129  0.20851699    -0.01400
Br1509     Br  0.23922473  0.57310262  0.31261375    -0.01400
Br1510     Br  0.18418131  0.50512826  0.30194685    -0.01400
C1511       C  0.04073152  0.80193295  0.17578022    -0.02500
C1512       C  0.02871125  0.77570178  0.14906603     0.07200
C1513       C  0.05488696  0.75020516  0.13899932    -0.02600
C1514       C  0.09009251  0.75827377  0.14420513    -0.02600
C1515       C  0.10166828  0.78542585  0.16846732     0.07300
C1516       C  0.07656454  0.80566570  0.18580740    -0.02800
Br1517     Br  0.09200388  0.83968790  0.22247598    -0.01400
Br1518     Br  0.01030390  0.83359723  0.20028234    -0.01400
Br1519     Br  0.12320380  0.73027671  0.11854962    -0.01400
Br1520     Br  0.04756254  0.69895340  0.13165746    -0.01400
C1521       C  0.96384285  0.71187616  0.11064090    -0.02500
C1522       C  0.98531624  0.74194954  0.10349777     0.07200
C1523       C  0.00327400  0.73677640  0.07151695    -0.02600
C1524       C  0.00081286  0.70430165  0.05090413    -0.02600
C1525       C  0.98807571  0.67258248  0.06495201     0.07300
C1526       C  0.97042915  0.67699118  0.09624909    -0.02800
Br1527     Br  0.95584472  0.63633002  0.12216904    -0.01400
Br1528     Br  0.91785603  0.71569108  0.12692696    -0.01400
Br1529     Br  0.01453639  0.70493361  0.00269379    -0.01400
Br1530     Br  0.03460686  0.77071578  0.05419620    -0.01400
C1531       C  0.95956748  0.81561883  0.07785879    -0.02500
C1532       C  0.98834431  0.81123729  0.10331074     0.07200
C1533       C  0.01369244  0.83949600  0.10302688    -0.02600
C1534       C  0.00589115  0.87223892  0.08668988    -0.02600
C1535       C  0.97967335  0.87429116  0.06020263     0.07300
C1536       C  0.95745736  0.84506952  0.05472511    -0.02800
Br1537     Br  0.92522743  0.84478473  0.01424414    -0.01400
Br1538     Br  0.92091812  0.78392687  0.07355839    -0.01400
Br1539     Br  0.03387816  0.91405758  0.09883061    -0.01400
Br1540     Br  0.06308981  0.83411356  0.10847854    -0.01400
C1541       C  0.24125838  0.68087775  0.51800548    -0.02500
C1542       C  0.23959427  0.64139067  0.51647077     0.07200
C1543       C  0.23429630  0.62535682  0.54987695    -0.02600
C1544       C  0.22570373  0.64624737  0.57971906    -0.02600
C1545       C  0.22834197  0.68387415  0.58093218     0.07300
C1546       C  0.23580486  0.70109046  0.54993595    -0.02800
Br1547     Br  0.23987925  0.75308946  0.55199342    -0.01400
Br1548     Br  0.25705092  0.71085176  0.48112934    -0.01400
Br1549     Br  0.20358580  0.62343400  0.61766013    -0.01400
Br1550     Br  0.23247250  0.57426829  0.55690710    -0.01400
C1551       C  0.27894858  0.54970745  0.49360770    -0.02500
C1552       C  0.27690198  0.58929163  0.49511703     0.07200
C1553       C  0.30762362  0.60588202  0.51138433    -0.02600
C1554       C  0.33649182  0.58534361  0.52324920    -0.02600
C1555       C  0.34006414  0.54914330  0.51267135     0.07300
C1556       C  0.31117832  0.53132800  0.49789111    -0.02800
Br1557     Br  0.31639967  0.48135313  0.48292637    -0.01400
Br1558     Br  0.24142620  0.51590277  0.49372059    -0.01400
Br1559     Br  0.37368059  0.60768060  0.55190039    -0.01400
Br1560     Br  0.31682065  0.65674973  0.51286147    -0.01400
C1561       C  0.17653955  0.60135661  0.48743997    -0.02500
C1562       C  0.20938053  0.59270963  0.47285298     0.07200
C1563       C  0.20656707  0.56553474  0.44436908    -0.02600
C1564       C  0.17739570  0.54204153  0.44000363    -0.02600
C1565       C  0.14718489  0.55113068  0.45657822     0.07300
C1566       C  0.14670414  0.58579957  0.47228427    -0.02800
Br1567     Br  0.10847347  0.61812487  0.46027542    -0.01400
Br1568     Br  0.16320773  0.63701783  0.52305182    -0.01400
Br1569     Br  0.17774884  0.49992022  0.40921379    -0.01400
Br1570     Br  0.24217040  0.55648767  0.41229360    -0.01400
C1571       C  0.22385391  0.65729037  0.42925419    -0.02500
C1572       C  0.25104641  0.63593370  0.44661398     0.07200
C1573       C  0.28216018  0.63357967  0.42718668    -0.02600
C1574       C  0.28683471  0.65600143  0.39797439    -0.02600
C1575       C  0.25977302  0.67712038  0.38303597     0.07300
C1576       C  0.22769239  0.67447176  0.39703688    -0.02800
Br1577     Br  0.18758325  0.69246318  0.36998122    -0.01400
Br1578     Br  0.18215157  0.67217666  0.44990250    -0.01400
Br1579     Br  0.33067693  0.65631048  0.37676803    -0.01400
Br1580     Br  0.31834108  0.59733203  0.43287754    -0.01400
C1581       C  0.57774160  0.54194227  0.21105716    -0.02500
C1582       C  0.59179336  0.50931478  0.22524001     0.07200
C1583       C  0.58753791  0.47823503  0.20203428    -0.02600
C1584       C  0.58391225  0.48209525  0.16544809    -0.02600
C1585       C  0.57645738  0.51615705  0.15140840     0.07300
C1586       C  0.57367295  0.54610973  0.17453980    -0.02800
Br1587     Br  0.56403811  0.59363808  0.15657987    -0.01400
Br1588     Br  0.54596430  0.57149370  0.23635051    -0.01400
Br1589     Br  0.59431014  0.44081989  0.13548857    -0.01400
Br1590     Br  0.58184065  0.42991679  0.21835352    -0.01400
C1591       C  0.61725386  0.51307527  0.32884592    -0.02500
C1592       C  0.59769252  0.50955606  0.29541906     0.07200
C1593       C  0.56115053  0.50438621  0.29743806    -0.02600
C1594       C  0.54602426  0.50552354  0.33022425    -0.02600
C1595       C  0.56628774  0.50685667  0.36184242     0.07300
C1596       C  0.60181184  0.51041073  0.36108942    -0.02800
Br1597     Br  0.63009999  0.50962079  0.40497461    -0.01400
Br1598     Br  0.66587913  0.52056654  0.33410370    -0.01400
Br1599     Br  0.49649585  0.50575406  0.33188002    -0.01400
Br1600     Br  0.52965544  0.48749783  0.25940248    -0.01400
C1601       C  0.63980866  0.44575403  0.28309321    -0.02500
C1602       C  0.63954200  0.47326556  0.25721205     0.07200
C1603       C  0.65935166  0.46526720  0.22687831    -0.02600
C1604       C  0.67837953  0.43274317  0.22448191    -0.02600
C1605       C  0.68171648  0.40988427  0.25343162     0.07300
C1606       C  0.66511433  0.41909845  0.28396239    -0.02800
Br1607     Br  0.67480079  0.39390463  0.32734075    -0.01400
Br1608     Br  0.60060921  0.43076749  0.30793250    -0.01400
Br1609     Br  0.69943298  0.41997360  0.18096911    -0.01400
Br1610     Br  0.66293789  0.49781032  0.18783496    -0.01400
C1611       C  0.75547633  0.37068791  0.39574178    -0.02500
C1612       C  0.74608034  0.33436875  0.39173091     0.07200
C1613       C  0.74656807  0.31353514  0.42189137    -0.02600
C1614       C  0.75482923  0.32944159  0.45549649    -0.02600
C1615       C  0.75415454  0.36793969  0.46073863     0.07300
C1616       C  0.76043175  0.38707410  0.42966590    -0.02800
Br1617     Br  0.78384665  0.43215036  0.43180837    -0.01400
Br1618     Br  0.76350029  0.39741829  0.35427472    -0.01400
Br1619     Br  0.78392773  0.29855698  0.48434758    -0.01400
Br1620     Br  0.73820979  0.26233707  0.41698252    -0.01400
C1621       C  0.68063766  0.47257164  0.50173492    -0.02500
C1622       C  0.64968464  0.45670069  0.48963408     0.07200
C1623       C  0.65120263  0.42383538  0.47075016    -0.02600
C1624       C  0.68246211  0.40399585  0.46928567    -0.02600
C1625       C  0.71431549  0.41728799  0.48617568     0.07300
C1626       C  0.71252768  0.45524400  0.49560704    -0.02800
Br1627     Br  0.74464884  0.48969185  0.48068198    -0.01400
Br1628     Br  0.67961258  0.51887598  0.52607102    -0.01400
Br1629     Br  0.67895165  0.36302430  0.43707053    -0.01400
Br1630     Br  0.60955707  0.40732863  0.44502873    -0.01400
C1631       C  0.81158453  0.38216306  0.50806976    -0.02500
C1632       C  0.78282782  0.40533361  0.51026142     0.07200
C1633       C  0.79205804  0.44034115  0.52356564    -0.02600
C1634       C  0.82493120  0.45449310  0.51741475    -0.02600
C1635       C  0.85042746  0.43230136  0.50156351     0.07300
C1636       C  0.84191859  0.39526379  0.49584414    -0.02800
Br1637     Br  0.86925140  0.35938765  0.47241208    -0.01400
Br1638     Br  0.82076438  0.35043875  0.54653307    -0.01400
Br1639     Br  0.83262636  0.50466122  0.53046016    -0.01400
Br1640     Br  0.76879923  0.46317030  0.56168981    -0.01400
C1641       C  0.30989129  0.53981414  0.75703959    -0.02500
C1642       C  0.34634325  0.53611383  0.75272036     0.07200
C1643       C  0.36502981  0.57006862  0.75456291    -0.02600
C1644       C  0.34946319  0.60291373  0.76520536    -0.02600
C1645       C  0.31492122  0.60483520  0.77205575     0.07300
C1646       C  0.29553524  0.57316871  0.76882990    -0.02800
Br1647     Br  0.24846127  0.57639437  0.78168625    -0.01400
Br1648     Br  0.27589339  0.50432203  0.74096863    -0.01400
Br1649     Br  0.37567685  0.64668094  0.77241170    -0.01400
Br1650     Br  0.41314334  0.57529829  0.74564783    -0.01400
C1651       C  0.34681612  0.43593412  0.71299344    -0.02500
C1652       C  0.34503122  0.46151184  0.74313417     0.07200
C1653       C  0.32628173  0.44815039  0.77170036    -0.02600
C1654       C  0.31169240  0.41324809  0.77045367    -0.02600
C1655       C  0.31267988  0.39093131  0.74042472     0.07300
C1656       C  0.32836899  0.40312009  0.71123544    -0.02800
Br1657     Br  0.32657153  0.37157933  0.66929364    -0.01400
Br1658     Br  0.37965200  0.43477580  0.67661370    -0.01400
Br1659     Br  0.28931263  0.39499316  0.81001854    -0.01400
Br1660     Br  0.31945566  0.47569970  0.81439764    -0.01400
C1661       C  0.39615003  0.52459338  0.80813762    -0.02500
C1662       C  0.38928066  0.49406000  0.78486093     0.07200
C1663       C  0.40479190  0.46053464  0.79668982    -0.02600
C1664       C  0.42418364  0.46013948  0.82920144    -0.02600
C1665       C  0.43646157  0.49291520  0.84431398     0.07300
C1666       C  0.42606196  0.52497220  0.82900426    -0.02800
Br1667     Br  0.44816316  0.57010688  0.84089139    -0.01400
Br1668     Br  0.36147931  0.55119312  0.83288565    -0.01400
Br1669     Br  0.43240377  0.41542697  0.85309038    -0.01400
Br1670     Br  0.40705480  0.41630963  0.76881240    -0.01400
C1671       C  0.37303139  0.51552662  0.68378032    -0.02500
C1672       C  0.38983277  0.50340700  0.71629093     0.07200
C1673       C  0.42688056  0.49773085  0.71585242    -0.02600
C1674       C  0.44357207  0.49896748  0.68400445    -0.02600
C1675       C  0.42574425  0.50992324  0.65330196     0.07300
C1676       C  0.39128493  0.51989709  0.65359035    -0.02800
Br1677     Br  0.36853933  0.53771236  0.61088553    -0.01400
Br1678     Br  0.32407090  0.52129563  0.67573482    -0.01400
Br1679     Br  0.49139042  0.48431367  0.68126909    -0.01400
Br1680     Br  0.45943709  0.49361656  0.75585594    -0.01400
C1681       C  0.74301678  0.18266539  0.02903217    -0.02500
C1682       C  0.74646090  0.14368948  0.02401590     0.07200
C1683       C  0.75487375  0.12422894  0.05620309    -0.02600
C1684       C  0.75957645  0.14207638  0.08946648    -0.02600
C1685       C  0.75493827  0.17930164  0.09305588     0.07300
C1686       C  0.74625827  0.19932511  0.06320012    -0.02800
Br1687     Br  0.73982357  0.25104900  0.07027994    -0.01400
Br1688     Br  0.73749169  0.21749519  0.99232046    -0.01400
Br1689     Br  0.76986844  0.11520587  0.13189970    -0.01400
Br1690     Br  0.75725671  0.07211673  0.05862807    -0.01400
C1691       C  0.68854206  0.09338874  0.01330712    -0.02500
C1692       C  0.71011343  0.09743289  0.98418632     0.07200
C1693       C  0.69689526  0.08045610  0.95138512    -0.02600
C1694       C  0.66487284  0.06290156  0.94936984    -0.02600
C1695       C  0.64932661  0.05413335  0.98007538     0.07300
C1696       C  0.66457395  0.06570082  0.01237881    -0.02800
Br1697     Br  0.64767624  0.04888904  0.05557270    -0.01400
Br1698     Br  0.67616642  0.13135891  0.04667843    -0.01400
Br1699     Br  0.64056732  0.05411093  0.90460083    -0.01400
Br1700     Br  0.72049361  0.07804058  0.90822107    -0.01400
C1701       C  0.78247769  0.05948978  0.98244612    -0.02500
C1702       C  0.77888388  0.09836836  0.98825062     0.07200
C1703       C  0.81058748  0.11714985  0.99737456    -0.02600
C1704       C  0.84201398  0.09855803  0.00184013    -0.02600
C1705       C  0.84526004  0.06249108  0.99036948     0.07300
C1706       C  0.81548708  0.04309620  0.98049200    -0.02800
Br1707     Br  0.82019224  0.99400226  0.96256601    -0.01400
Br1708     Br  0.74594038  0.02450553  0.98080593    -0.01400
Br1709     Br  0.88143717  0.12309423  0.02436191    -0.01400
Br1710     Br  0.81498405  0.16926876  0.99964748    -0.01400
C1711       C  0.13569160  0.94331946  0.68337136    -0.02500
C1712       C  0.12143749  0.95202813  0.71695319     0.07200
C1713       C  0.11956891  0.92302755  0.74114775    -0.02600
C1714       C  0.13759556  0.89085745  0.73500176    -0.02600
C1715       C  0.15589971  0.88567459  0.70457066     0.07300
C1716       C  0.15276282  0.91026087  0.67767204    -0.02800
Br1717     Br  0.17507425  0.90002907  0.63446332    -0.01400
Br1718     Br  0.13590547  0.97697601  0.64496835    -0.01400
Br1719     Br  0.13572220  0.85205703  0.76803015    -0.01400
Br1720     Br  0.08733072  0.91980105  0.77833436    -0.01400
C1721       C  0.12233721  0.05693586  0.71944632    -0.02500
C1722       C  0.13351058  0.02059119  0.71851564     0.07200
C1723       C  0.17031797  0.01618131  0.71339037    -0.02600
C1724       C  0.19006484  0.04649909  0.70468445    -0.02600
C1725       C  0.17419626  0.08035495  0.69937713     0.07300
C1726       C  0.13852918  0.08206342  0.70013490    -0.02800
Br1727     Br  0.11078808  0.11733513  0.67536120    -0.01400
Br1728     Br  0.11072626  0.07821969  0.76402033    -0.01400
Br1729     Br  0.23801079  0.04112197  0.69466724    -0.01400
Br1730     Br  0.19852391  0.97311238  0.72141050    -0.01400
C1731       C  0.04814032  0.02553134  0.64278453    -0.02500
C1732       C  0.04564983  0.99324447  0.62298755     0.07200
C1733       C  0.05077889  0.96033967  0.63908467    -0.02600
C1734       C  0.06145165  0.95983126  0.67453612    -0.02600
C1735       C  0.07462394  0.99220115  0.69248334     0.07300
C1736       C  0.06085656  0.02513586  0.67816139    -0.02800
Br1737     Br  0.04462440  0.06486667  0.70696950    -0.01400
Br1738     Br  0.03144887  0.06957550  0.62156420    -0.01400
Br1739     Br  0.05214525  0.91494415  0.69655646    -0.01400
Br1740     Br  0.04631811  0.91551244  0.61167081    -0.01400
C1741       C  0.09900351  0.99939325  0.82479063    -0.02500
C1742       C  0.06586575  0.01325208  0.82740838     0.07200
C1743       C  0.04539421  0.01967922  0.79715091    -0.02600
C1744       C  0.05491691  0.00472589  0.76517379    -0.02600
C1745       C  0.09051322  0.99661925  0.75996838     0.07300
C1746       C  0.11281006  0.99574582  0.79160863    -0.02800
Br1747     Br  0.16063279  0.98321064  0.79318844    -0.01400
Br1748     Br  0.12279913  0.97927551  0.86586478    -0.01400
Br1749     Br  0.01548377  0.98601050  0.73762446    -0.01400
Br1750     Br  0.00267294  0.04634143  0.79998883    -0.01400
C1751       C  0.43909042  0.71960893  0.35158140    -0.02500
C1752       C  0.46909166  0.72772973  0.33334189     0.07200
C1753       C  0.46340314  0.72330920  0.29519649    -0.02600
C1754       C  0.42938156  0.72150121  0.27931988    -0.02600
C1755       C  0.40063448  0.72231054  0.29983335     0.07300
C1756       C  0.40616118  0.72484402  0.33613811    -0.02800
Br1757     Br  0.36925625  0.73721741  0.36567987    -0.01400
Br1758     Br  0.43759300  0.67955170  0.38290309    -0.01400
Br1759     Br  0.42117068  0.72070368  0.22861891    -0.01400
Br1760     Br  0.49781329  0.71293141  0.26124665    -0.01400
C1761       C  0.51531543  0.67229394  0.36956371    -0.02500
C1762       C  0.51183855  0.70901328  0.38290411     0.07200
C1763       C  0.51655214  0.71379454  0.42065393    -0.02600
C1764       C  0.51619819  0.68362941  0.44268099    -0.02600
C1765       C  0.51541207  0.64847059  0.42817866     0.07300
C1766       C  0.51589697  0.64293495  0.39194392    -0.02800
Br1767     Br  0.51362623  0.59395745  0.37264887    -0.01400
Br1768     Br  0.52093013  0.65860073  0.32119766    -0.01400
Br1769     Br  0.51698803  0.68987090  0.49319381    -0.01400
Br1770     Br  0.53219858  0.75822907  0.44410327    -0.01400
C1771       C  0.50866041  0.84576652  0.37585048    -0.02500
C1772       C  0.48102266  0.85475001  0.39625926     0.07200
C1773       C  0.45996393  0.82658003  0.40539052    -0.02600
C1774       C  0.46767144  0.78975182  0.39573235    -0.02600
C1775       C  0.49679090  0.77991558  0.37498456     0.07300
C1776       C  0.51959360  0.80970598  0.37142993    -0.02800
Br1777     Br  0.56913119  0.80529101  0.37442722    -0.01400
Br1778     Br  0.53339465  0.88378856  0.35511720    -0.01400
Br1779     Br  0.44517575  0.75635177  0.42418280    -0.01400
Br1780     Br  0.42141545  0.83900008  0.43330202    -0.01400
C1781       C  0.83144088  0.56037409  0.00138850    -0.02500
C1782       C  0.85919341  0.58302834  0.00926973     0.07200
C1783       C  0.85343815  0.62026586  0.01213626    -0.02600
C1784       C  0.81980948  0.63504437  0.00713637    -0.02600
C1785       C  0.79036454  0.61253606  0.99821654     0.07300
C1786       C  0.79851284  0.57466034  0.99223450    -0.02800
Br1787     Br  0.77065316  0.54097382  0.96375110    -0.01400
Br1788     Br  0.83967956  0.50870010  0.00216748    -0.01400
Br1789     Br  0.81713845  0.68673624  0.01103506    -0.01400
Br1790     Br  0.89277095  0.65096730  0.02217604    -0.01400
C1791       C  0.70262319  0.58722992  0.96247871    -0.02500
C1792       C  0.72399390  0.59764912  0.99329148     0.07200
C1793       C  0.71707226  0.57768162  0.02403034    -0.02600
C1794       C  0.68443853  0.56325417  0.02825602    -0.02600
C1795       C  0.66157362  0.55802636  0.99906339     0.07300
C1796       C  0.67227006  0.56727898  0.96575426    -0.02800
Br1797     Br  0.64529963  0.55118961  0.92402548    -0.01400
Br1798     Br  0.71566382  0.59309349  0.91447047    -0.01400
Br1799     Br  0.67168983  0.55054105  0.07444822    -0.01400
Br1800     Br  0.75228822  0.55362394  0.05261770    -0.01400
C1801       C  0.72966396  0.64891838  0.09027726    -0.02500
C1802       C  0.71807738  0.68457617  0.09216197     0.07200
C1803       C  0.72064211  0.70593845  0.06261092    -0.02600
C1804       C  0.73431543  0.69144959  0.03120226    -0.02600
C1805       C  0.74596294  0.65398759  0.02929224     0.07300
C1806       C  0.75021904  0.63802062  0.06294701    -0.02800
Br1807     Br  0.79530995  0.62334349  0.08148043    -0.01400
Br1808     Br  0.72744700  0.61914335  0.13078330    -0.01400
Br1809     Br  0.74334174  0.72816154  0.99763218    -0.01400
Br1810     Br  0.70718502  0.75629032  0.06720909    -0.01400
C1811       C  0.83015297  0.92022447  0.19533633    -0.02500
C1812       C  0.81984950  0.90898975  0.22775124     0.07200
C1813       C  0.83071232  0.92738312  0.25860178    -0.02600
C1814       C  0.85365080  0.95609140  0.25775985    -0.02600
C1815       C  0.86547184  0.96836198  0.22459089     0.07300
C1816       C  0.85616781  0.94577487  0.19405006    -0.02800
Br1817     Br  0.88200228  0.93892619  0.15240280    -0.01400
Br1818     Br  0.80586028  0.90434303  0.15200786    -0.01400
Br1819     Br  0.86742784  0.97372727  0.30455746    -0.01400
Br1820     Br  0.80793171  0.91708901  0.30133050    -0.01400
C1821       C  0.53664805  0.76815648  0.30343208    -0.02500
C1822       C  0.53627891  0.74365345  0.33223097     0.07200
C1823       C  0.56851142  0.72468807  0.33958143    -0.02600
C1824       C  0.59308925  0.72105250  0.31417116    -0.02600
C1825       C  0.59282396  0.74435876  0.28594762     0.07300
C1826       C  0.56523260  0.76908172  0.28170964    -0.02800
Br1827     Br  0.56732747  0.80480987  0.24625124    -0.01400
Br1828     Br  0.49848093  0.80080092  0.29188641    -0.01400
Br1829     Br  0.63051967  0.68655734  0.32089191    -0.01400
Br1830     Br  0.58754242  0.71261327  0.38618543    -0.01400
C1831       C  0.69120317  0.57594213  0.24051161    -0.02500
C1832       C  0.67207551  0.60808248  0.23790750     0.07200
C1833       C  0.63795699  0.60846024  0.24729518    -0.02600
C1834       C  0.62504086  0.57879908  0.26379969    -0.02600
C1835       C  0.64064087  0.54396226  0.26015391     0.07300
C1836       C  0.67693525  0.54470792  0.25378350    -0.02800
Br1837     Br  0.71171696  0.50878855  0.26808703    -0.01400
Br1838     Br  0.73645851  0.57410631  0.22229233    -0.01400
Br1839     Br  0.59711804  0.59194384  0.30271896    -0.01400
Br1840     Br  0.60792762  0.64932465  0.23823804    -0.01400
C1841       C  0.92817154  0.75383784  0.20461314    -0.02500
C1842       C  0.90021713  0.77752808  0.19792114     0.07200
C1843       C  0.90518732  0.80604953  0.17560036    -0.02600
C1844       C  0.93627072  0.81011237  0.15864154    -0.02600
C1845       C  0.96170765  0.78121826  0.15775980     0.07300
C1846       C  0.95850072  0.75544979  0.18511071    -0.02800
Br1847     Br  0.99320304  0.71938497  0.19527825    -0.01400
Br1848     Br  0.92317879  0.71709378  0.23858445    -0.01400
Br1849     Br  0.94394432  0.85959077  0.14596454    -0.01400
Br1850     Br  0.86829075  0.84034321  0.16863294    -0.01400
C1851       C  0.80259949  0.93325444  0.50940136    -0.02500
C1852       C  0.79485285  0.89639551  0.49806104     0.07200
C1853       C  0.82427749  0.87595438  0.48678395    -0.02600
C1854       C  0.85423972  0.89287935  0.47722729    -0.02600
C1855       C  0.86036404  0.92887185  0.48683621     0.07300
C1856       C  0.83472980  0.94896655  0.50313660    -0.02800
Br1857     Br  0.84401228  0.99883469  0.51599573    -0.01400
Br1858     Br  0.77512685  0.96114271  0.54149093    -0.01400
Br1859     Br  0.88926847  0.86530524  0.45368230    -0.01400
Br1860     Br  0.83374240  0.82646205  0.49847542    -0.01400
C1861       C  0.71963197  0.93903568  0.48140578    -0.02500
C1862       C  0.72665650  0.90825960  0.50370691     0.07200
C1863       C  0.70283792  0.90646789  0.53113180    -0.02600
C1864       C  0.66931903  0.92173137  0.52724432    -0.02600
C1865       C  0.66162817  0.95005764  0.50413318     0.07300
C1866       C  0.68835483  0.96015979  0.48309284    -0.02800
Br1867     Br  0.68064607  0.00198727  0.45471317    -0.01400
Br1868     Br  0.75142720  0.95431101  0.44774016    -0.01400
Br1869     Br  0.63365858  0.90161835  0.55322942    -0.01400
Br1870     Br  0.71663184  0.89532386  0.57925783    -0.01400
C1871       C  0.73622025  0.87407655  0.43072785    -0.02500
C1872       C  0.75199155  0.85684901  0.46054486     0.07200
C1873       C  0.76806572  0.82269801  0.45120542    -0.02600
C1874       C  0.77808902  0.81492178  0.41634850    -0.02600
C1875       C  0.76897579  0.83817010  0.38879116     0.07300
C1876       C  0.74861833  0.86857528  0.39684826    -0.02800
Br1877     Br  0.73292114  0.90020957  0.35981081    -0.01400
Br1878     Br  0.68744337  0.88405942  0.42914290    -0.01400
Br1879     Br  0.80141593  0.76999465  0.40500029    -0.01400
Br1880     Br  0.76587658  0.77989557  0.47913589    -0.01400
C1881       C  0.94757436  0.49767851  0.68999912    -0.02500
C1882       C  0.91063315  0.49350229  0.69079958     0.07200
C1883       C  0.89369392  0.48254634  0.65723693    -0.02600
C1884       C  0.91217548  0.47691600  0.62717940    -0.02600
C1885       C  0.94487248  0.49087586  0.62615388     0.07300
C1886       C  0.96261870  0.50165815  0.65757580    -0.02800
Br1887     Br  0.00722195  0.52336954  0.65620372    -0.01400
Br1888     Br  0.98199618  0.48966653  0.72789779    -0.01400
Br1889     Br  0.89302859  0.44905230  0.58701826    -0.01400
Br1890     Br  0.84510283  0.47968270  0.64627130    -0.01400
C1891       C  0.93359688  0.53198966  0.77023457    -0.02500
C1892       C  0.91184315  0.50133044  0.76122143     0.07200
C1893       C  0.91089953  0.47487522  0.78891438    -0.02600
C1894       C  0.93513906  0.47551616  0.81797640    -0.02600
C1895       C  0.95731876  0.50451437  0.82419845     0.07300
C1896       C  0.95597761  0.53291147  0.80093907    -0.02800
Br1897     Br  0.98610595  0.57326761  0.81194338    -0.01400
Br1898     Br  0.93630938  0.57362494  0.74145765    -0.01400
Br1899     Br  0.93498137  0.43870254  0.85342341    -0.01400
Br1900     Br  0.87261619  0.44365860  0.79796949    -0.01400
C1901       C  0.86068673  0.39807438  0.72254470    -0.02500
C1902       C  0.82544666  0.40014568  0.72814830     0.07200
C1903       C  0.80924989  0.43409141  0.73034990    -0.02600
C1904       C  0.82730588  0.46579400  0.72417098    -0.02600
C1905       C  0.86455853  0.46512843  0.72351982     0.07300
C1906       C  0.88020126  0.42958479  0.72122095    -0.02800
Br1907     Br  0.92924401  0.42087521  0.72146230    -0.01400
Br1908     Br  0.88414032  0.35153123  0.72195264    -0.01400
Br1909     Br  0.79616620  0.50392501  0.70751113    -0.01400
Br1910     Br  0.76113184  0.43754517  0.74058028    -0.01400
C1911       C  0.56586643  0.24405296  0.71484310    -0.02500
C1912       C  0.59445468  0.23156007  0.69751510     0.07200
C1913       C  0.59053537  0.22287480  0.66168124    -0.02600
C1914       C  0.56297855  0.23734267  0.64189650    -0.02600
C1915       C  0.53113328  0.24595472  0.65790697     0.07300
C1916       C  0.53329394  0.24522046  0.69632339    -0.02800
Br1917     Br  0.49659039  0.23750244  0.72722689    -0.01400
Br1918     Br  0.57139207  0.25961045  0.76362518    -0.01400
Br1919     Br  0.57318565  0.24823626  0.59417742    -0.01400
Br1920     Br  0.62473554  0.19365550  0.63907969    -0.01400
C1921       C  0.74711258  0.36709634  0.59298843    -0.02500
C1922       C  0.75170129  0.32937110  0.59189897     0.07200
C1923       C  0.74061312  0.31064375  0.56056456    -0.02600
C1924       C  0.72955093  0.32972316  0.53010495    -0.02600
C1925       C  0.73434070  0.36757832  0.52902080     0.07300
C1926       C  0.73396873  0.38493848  0.56272704    -0.02800
Br1927     Br  0.69752385  0.41910136  0.57091450    -0.01400
Br1928     Br  0.75442088  0.39400677  0.63680526    -0.01400
Br1929     Br  0.69470258  0.30638073  0.50018205    -0.01400
Br1930     Br  0.73864547  0.25860904  0.55991114    -0.01400
C1931       C  0.91319323  0.29026899  0.80276658    -0.02500
C1932       C  0.90703302  0.27103503  0.77103722     0.07200
C1933       C  0.93490383  0.25584799  0.75444933    -0.02600
C1934       C  0.96848376  0.26038853  0.76985611    -0.02600
C1935       C  0.97374337  0.26818168  0.80753598     0.07300
C1936       C  0.94403305  0.28470482  0.82297554    -0.02800
Br1937     Br  0.93865978  0.29285111  0.87257402    -0.01400
Br1938     Br  0.87792963  0.32277216  0.81926474    -0.01400
Br1939     Br  0.00143363  0.26621704  0.73431855    -0.01400
Br1940     Br  0.92714312  0.22879974  0.71069903    -0.01400
C1941       C  0.71040955  0.18303059  0.90656454    -0.02500
C1942       C  0.74067856  0.18797790  0.88869803     0.07200
C1943       C  0.77143005  0.17429319  0.90469981    -0.02600
C1944       C  0.77037440  0.14726977  0.92924683    -0.02600
C1945       C  0.74216581  0.14519842  0.95190014     0.07300
C1946       C  0.71117636  0.16352177  0.93846647    -0.02800
Br1947     Br  0.66883105  0.16445526  0.96259830    -0.01400
Br1948     Br  0.66856103  0.20732967  0.89028483    -0.01400
Br1949     Br  0.80139551  0.10809142  0.91637406    -0.01400
Br1950     Br  0.81677076  0.18976412  0.89405791    -0.01400
C1951       C  0.59543641  0.97175172  0.80467046    -0.02500
C1952       C  0.58659220  0.99159229  0.77395551     0.07200
C1953       C  0.55154100  0.00380952  0.77316449    -0.02600
C1954       C  0.53547847  0.01076616  0.80551285    -0.02600
C1955       C  0.55282662  0.00186290  0.83825925     0.07300
C1956       C  0.58471412  0.98349762  0.83685688    -0.02800
Br1957     Br  0.61380884  0.96766346  0.87645314    -0.01400
Br1958     Br  0.58816223  0.92028961  0.80268751    -0.01400
Br1959     Br  0.48956397  0.03129141  0.80359721    -0.01400
Br1960     Br  0.52006022  0.99573405  0.73288699    -0.01400
C1961       C  0.57773449  0.03209371  0.69858281    -0.02500
C1962       C  0.60277170  0.00443228  0.70627797     0.07200
C1963       C  0.61839257  0.98888583  0.67528839    -0.02600
C1964       C  0.60435576  0.99615305  0.64130666    -0.02600
C1965       C  0.57258978  0.01350096  0.63690824     0.07300
C1966       C  0.55912248  0.03182233  0.66565805    -0.02800
Br1967     Br  0.51486968  0.05554362  0.66033595    -0.01400
Br1968     Br  0.56944803  0.07267376  0.72990225    -0.01400
Br1969     Br  0.62820624  0.98176809  0.59979130    -0.01400
Br1970     Br  0.65773663  0.95627588  0.67367436    -0.01400
C1971       C  0.63867525  0.05803669  0.77959841    -0.02500
C1972       C  0.64196068  0.02866875  0.75423378     0.07200
C1973       C  0.66920131  0.03319793  0.73121392    -0.02600
C1974       C  0.68011227  0.06766114  0.72354794    -0.02600
C1975       C  0.67769111  0.09591996  0.74878060     0.07300
C1976       C  0.65977108  0.08890324  0.77894326    -0.02800
Br1977     Br  0.66604322  0.11982524  0.82081936    -0.01400
Br1978     Br  0.60643886  0.06097304  0.81546755    -0.01400
Br1979     Br  0.70098995  0.07270032  0.67941789    -0.01400
Br1980     Br  0.70687621  0.99924506  0.72869750    -0.01400
C1981       C  0.82145236  0.57550809  0.74614150    -0.02500
C1982       C  0.82062743  0.59815312  0.71718917     0.07200
C1983       C  0.84284656  0.59054973  0.69032703    -0.02600
C1984       C  0.86652312  0.56123637  0.69302051    -0.02600
C1985       C  0.86722851  0.53673332  0.72234020     0.07300
C1986       C  0.84663184  0.54838126  0.75074252    -0.02800
Br1987     Br  0.84895932  0.52883547  0.79711681    -0.01400
Br1988     Br  0.78289089  0.57568222  0.77603564    -0.01400
Br1989     Br  0.90144003  0.56477688  0.65955234    -0.01400
Br1990     Br  0.84171777  0.62125285  0.64957714    -0.01400
C1991       C  0.78419985  0.81733925  0.58126837    -0.02500
C1992       C  0.75617866  0.79443514  0.58252882     0.07200
C1993       C  0.72855845  0.79866562  0.55757290    -0.02600
C1994       C  0.72881446  0.82525030  0.53137840    -0.02600
C1995       C  0.75728735  0.84940117  0.52935864     0.07300
C1996       C  0.78359547  0.84634837  0.55776592    -0.02800
Br1997     Br  0.81547808  0.88389343  0.57332048    -0.01400
Br1998     Br  0.82237029  0.81093388  0.61553631    -0.01400
Br1999     Br  0.68882975  0.82703646  0.49895954    -0.01400
Br2000     Br  0.69002992  0.76689255  0.55966822    -0.01400
C2001       C  0.58250703  0.70951692  0.82889324    -0.02500
C2002       C  0.59236125  0.73598214  0.80622982     0.07200
C2003       C  0.56991460  0.76476771  0.79922047    -0.02600
C2004       C  0.54005330  0.77043712  0.81809406    -0.02600
C2005       C  0.53043620  0.74607751  0.84486825     0.07300
C2006       C  0.55207429  0.71367054  0.84782340    -0.02800
Br2007     Br  0.54182645  0.67091132  0.87288089    -0.01400
Br2008     Br  0.61087560  0.66623307  0.83175943    -0.01400
Br2009     Br  0.51627334  0.81514430  0.80753981    -0.01400
Br2010     Br  0.58076706  0.79658481  0.76237626    -0.01400
C2011       C  0.67599326  0.91544894  0.77498429    -0.02500
C2012       C  0.66091510  0.88679684  0.75536188     0.07200
C2013       C  0.63203562  0.89296326  0.73258136    -0.02600
C2014       C  0.61707236  0.92744965  0.73049020    -0.02600
C2015       C  0.63372763  0.95824014  0.74765603     0.07300
C2016       C  0.66172704  0.95048988  0.77290759    -0.02800
Br2017     Br  0.67869006  0.98429148  0.80965640    -0.01400
Br2018     Br  0.71815656  0.90679352  0.80287963    -0.01400
Br2019     Br  0.57210086  0.92929431  0.70598800    -0.01400
Br2020     Br  0.61320713  0.85402172  0.70269081    -0.01400
C2021       C  0.77180618  0.68730811  0.91251049    -0.02500
C2022       C  0.73983101  0.70034265  0.89919666     0.07200
C2023       C  0.71098408  0.69151891  0.91782743    -0.02600
C2024       C  0.71461514  0.67036867  0.94890755    -0.02600
C2025       C  0.74708360  0.65316648  0.95967812     0.07300
C2026       C  0.77414930  0.65923325  0.93661552    -0.02800
Br2027     Br  0.80822857  0.62343354  0.92416999    -0.01400
Br2028     Br  0.81347734  0.70720596  0.89684297    -0.01400
Br2029     Br  0.67412129  0.66605254  0.97558597    -0.01400
Br2030     Br  0.66647056  0.70857663  0.90083704    -0.01400
C2031       C  0.88943402  0.73286069  0.63224609    -0.02500
C2032       C  0.88837736  0.73926364  0.66883269     0.07200
C2033       C  0.92000750  0.74347666  0.68844212    -0.02600
C2034       C  0.95205022  0.74157601  0.67200797    -0.02600
C2035       C  0.95334560  0.74078679  0.63384968     0.07300
C2036       C  0.92016860  0.73687821  0.61498074    -0.02800
Br2037     Br  0.91273323  0.74265747  0.56473912    -0.01400
Br2038     Br  0.84834218  0.71895913  0.60392925    -0.01400
Br2039     Br  0.99125072  0.73473416  0.70522276    -0.01400
Br2040     Br  0.91958357  0.74787599  0.73924445    -0.01400
loop_ 
_geom_bond_atom_site_label_1 
_geom_bond_atom_site_label_2 
_geom_bond_distance 
_geom_bond_site_symmetry_2 
_ccdc_geom_bond_type 
Zr1           O2   2.438       .  S
Zr1           O3   2.442       .  S
Zr1           O4   2.513       .  S
Zr1           O7   2.455       .  S
Zr1           O9   2.371       .  S
Zr1          O10   2.391       .  S
Zr1          O11   2.409       .  S
Zr1          O12   2.419       .  S
O2           H58   0.990       .  S
O2           H66   0.990       .  S
O3           C23   1.285       .  A
O4           C25   1.299       .  A
O5          Zr15   2.385       .  S
O5           C24   1.275       .  A
O6          Zr14   2.395       .  S
O6           C25   1.275       .  A
O7           C24   1.289       .  A
O8          Zr16   2.476       .  S
O8           C23   1.292       .  A
O9          Zr14   2.378       .  S
O9          Zr16   2.371       .  S
O10         Zr15   2.390       .  S
O10         Zr16   2.356       .  S
O10          H45   0.965       .  S
O11         Zr14   2.380       .  S
O11         Zr31   2.414       .  S
O11          H48   0.966       .  S
O12         Zr15   2.390       .  S
O12         Zr31   2.404       .  S
Zr13         O38   2.436       .  S
Zr13         O32   2.460       .  S
Zr13         O40   2.531       .  S
Zr13         O28   2.471       .  S
Zr13         O19   2.417       .  S
Zr13         O20   2.436       .  S
Zr13         O21   2.397       .  S
Zr13         O22   2.371       .  S
Zr14         O33   2.437       .  S
Zr14         O26   2.436       .  S
Zr14         O27   2.358       .  S
Zr14         O20   2.402       .  S
Zr14         O21   2.390       .  S
Zr15         O17   2.432       .  S
Zr15         O39   2.437       .  S
Zr15         O41   2.412       .  S
Zr15         O19   2.382       .  S
Zr15         O22   2.372       .  S
Zr16         O42   2.435       .  S
Zr16         O43   2.436       .  S
Zr16         O18   2.440       .  S
Zr16         O19   2.424       .  S
Zr16         O20   2.408       .  S
O17          H54   0.990       .  S
O18          H49   0.990       .  S
O18          H63   0.990       .  S
O20          H46   0.963       .  S
O21         Zr31   2.373       .  S
O22         Zr31   2.382       .  S
O22          H47   0.968       .  S
C23        C2032   1.521       .  S
C24        C1982   1.491       .  S
C25        C1992   1.499       .  S
O26          H62   0.990       .  S
O27          C29   1.270       .  A
O28          C29   1.293       .  A
C29        C2012   1.465       .  S
O30         Zr31   2.440       .  S
O30          H59   0.990       .  S
Zr31         O34   2.439       .  S
Zr31         O35   2.438       .  S
Zr31         O36   2.458       .  S
O32          C37   1.290       .  A
O33          H50   0.990       .  S
O33          H65   0.989       .  S
O34          H51   0.990       .  S
O35          H55   0.990       .  S
O35          H64   0.989       .  S
O36          C37   1.288       .  A
C37        C2002   1.501       .  S
O38          H57   0.990       .  S
O38          H61   0.990       .  S
O39          H53   0.990       .  S
O39          H60   0.990       .  S
O40          C44   1.302       .  A
O41          C44   1.281       .  A
O42          H52   0.990       .  S
O43          H56   0.990       .  S
C44        C2022   1.524       .  S
C67        C1952   1.621       .  S
C67        C1962   1.598   1_565  S
C67        C1972   1.605   1_565  S
C67        C2015   1.570       .  S
Zr68         O69   2.435       .  S
Zr68         O70   2.432       .  S
Zr68         O71   2.457       .  S
Zr68         O74   2.470       .  S
Zr68         O76   2.382       .  S
Zr68         O77   2.386       .  S
Zr68         O78   2.413       .  S
Zr68         O79   2.404       .  S
O69         H125   0.990       .  S
O69         H133   0.990       .  S
O70          C90   1.284       .  A
O71          C92   1.287       .  A
O72         Zr82   2.425       .  S
O72          C91   1.281       .  A
O73         Zr81   2.372       .  S
O73          C92   1.274       .  A
O74          C91   1.292       .  A
O75         Zr83   2.444       .  S
O75          C90   1.285       .  A
O76         Zr81   2.382       .  S
O76         Zr83   2.372       .  S
O77         Zr82   2.384       .  S
O77         Zr83   2.374       .  S
O77         H112   0.966       .  S
O78         Zr81   2.395       .  S
O78         Zr98   2.401       .  S
O78         H115   0.969       .  S
O79         Zr82   2.385       .  S
O79         Zr98   2.391       .  S
Zr80        O105   2.435       .  S
Zr80         O99   2.411       .  S
Zr80        O107   2.457       .  S
Zr80         O95   2.496       .  S
Zr80         O86   2.413       .  S
Zr80         O87   2.398       .  S
Zr80         O88   2.369       .  S
Zr80         O89   2.390       .  S
Zr81        O100   2.440       .  S
Zr81         O93   2.433       .  S
Zr81         O94   2.390       .  S
Zr81         O87   2.387       .  S
Zr81         O88   2.369       .  S
Zr82         O84   2.435       .  S
Zr82        O106   2.437       .  S
Zr82        O108   2.412       .  S
Zr82         O86   2.392       .  S
Zr82         O89   2.383       .  S
Zr83        O109   2.438       .  S
Zr83        O110   2.437       .  S
Zr83         O85   2.439       .  S
Zr83         O86   2.396       .  S
Zr83         O87   2.417       .  S
O84         H121   0.990       .  S
O85         H116   0.989       .  S
O85         H130   0.990       .  S
O87         H113   0.964       .  S
O88         Zr98   2.373       .  S
O89         Zr98   2.364       .  S
O89         H114   0.967       .  S
C90        C1975   1.502       .  S
C91        C1942   1.516       .  S
C92        C1912   1.472       .  S
O93         H129   0.990       .  S
O94          C96   1.275       .  A
O95          C96   1.295       .  A
C96        C1922   1.490       .  S
O97         Zr98   2.434       .  S
O97         H126   0.990       .  S
Zr98        O101   2.435       .  S
Zr98        O102   2.438       .  S
Zr98        O103   2.433       .  S
O99         C104   1.280       .  A
O100        H117   0.991       .  S
O100        H132   0.990       .  S
O101        H118   0.990       .  S
O102        H122   0.990       .  S
O102        H131   0.989       .  S
O103        C104   1.283       .  A
C104       C1902   1.485       .  S
O105        H124   0.990       .  S
O105        H128   0.990       .  S
O106        H120   0.990       .  S
O106        H127   0.990       .  S
O107        C111   1.289       .  A
O108        C111   1.281       .  A
O109        H119   0.990       .  S
O110        H123   0.990       .  S
C111       C1932   1.481       .  S
C134       C1882   1.600       .  S
C134       C1892   1.616       .  S
C134       C1905   1.596       .  S
C134       C1985   1.606       .  S
C135       C1852   1.616       .  S
C135       C1862   1.649       .  S
C135       C1872   1.634       .  S
C135       C1995   1.611       .  S
Zr136       O137   2.438       .  S
Zr136       O138   2.417       .  S
Zr136       O139   2.480       .  S
Zr136       O142   2.510       .  S
Zr136       O144   2.403       .  S
Zr136       O145   2.385       .  S
Zr136       O146   2.413       .  S
Zr136       O147   2.404       .  S
O137        H193   0.991       .  S
O137        H201   0.990       .  S
O138        C158   1.280       .  A
O139        C160   1.293       .  A
O140       Zr150   2.401       .  S
O140        C159   1.278       .  A
O141       Zr149   2.398       .  S
O141        C160   1.279       .  A
O142        C159   1.299       .  A
O143       Zr151   2.435       .  S
O143        C158   1.286       .  A
O144       Zr149   2.399       .  S
O144       Zr151   2.371       .  S
O145       Zr150   2.385       .  S
O145       Zr151   2.371       .  S
O145        H180   0.964       .  S
O146       Zr149   2.411       .  S
O146       Zr166   2.379       .  S
O146        H183   0.967       .  S
O147       Zr150   2.387       .  S
O147       Zr166   2.392       .  S
Zr148       O173   2.437       .  S
Zr148       O167   2.421       .  S
Zr148       O175   2.520       .  S
Zr148       O163   2.519       .  S
Zr148       O154   2.406       .  S
Zr148       O155   2.409       .  S
Zr148       O156   2.380       .  S
Zr148       O157   2.395       .  S
Zr149       O168   2.438       .  S
Zr149       O161   2.437       .  S
Zr149       O162   2.442       .  S
Zr149       O155   2.392       .  S
Zr149       O156   2.371       .  S
Zr150       O152   2.435       .  S
Zr150       O174   2.439       .  S
Zr150       O176   2.388       .  S
Zr150       O154   2.394       .  S
Zr150       O157   2.383       .  S
Zr151       O177   2.436       .  S
Zr151       O178   2.435       .  S
Zr151       O153   2.436       .  S
Zr151       O154   2.398       .  S
Zr151       O155   2.401       .  S
O152        H189   0.990       .  S
O153        H184   0.990       .  S
O153        H198   0.990       .  S
O155        H181   0.967       .  S
O156       Zr166   2.379       .  S
O157       Zr166   2.386       .  S
O157        H182   0.963       .  S
C158       C1832   1.480       .  S
C159       C1825   1.497       .  S
C160       C1802   1.478       .  S
O161        H197   0.990       .  S
O162        C164   1.286       .  A
O163        C164   1.301       .  A
C164       C1842   1.522       .  S
O165       Zr166   2.436       .  S
O165        H194   0.990       .  S
Zr166       O169   2.435       .  S
Zr166       O170   2.440       .  S
Zr166       O171   2.393       .  S
O167        C172   1.285       .  A
O168        H185   0.990       .  S
O168        H200   0.990       .  S
O169        H186   0.990       .  S
O170        H190   0.990       .  S
O170        H199   0.989       .  S
O171        C172   1.275       .  A
C172       C1812   1.462       .  S
O173        H192   0.990       .  S
O173        H196   0.990       .  S
O174        H188   0.988       .  S
O174        H195   0.990       .  S
O175        C179   1.302       .  A
O176        C179   1.277       .  A
O177        H187   0.990       .  S
O178        H191   0.990       .  S
C179       C1875   1.501       .  S
C202       C1785   1.608       .  S
C202       C1792   1.619       .  S
C202       C1805   1.621   1_556  S
C202       C2025   1.615       .  S
C203       C1752   1.634       .  S
C203       C1762   1.589       .  S
C203       C1775   1.639       .  S
C203       C1822   1.612       .  S
C204       C1712   1.564       .  S
C204       C1722   1.613   1_565  S
C204       C1735   1.601       .  S
C204       C1745   1.574       .  S
C205       C1682   1.620   1_556  S
C205       C1692   1.597       .  S
C205       C1702   1.601       .  S
C205       C1945   1.615       .  S
C206       C1642   1.618       .  S
C206       C1652   1.626       .  S
C206       C1662   1.587       .  S
C206       C1672   1.588       .  S
C207       C1615   1.613       .  S
C207       C1625   1.631       .  S
C207       C1632   1.606       .  S
C207       C1925   1.603       .  S
C208       C1582   1.601       .  S
C208       C1592   1.589       .  S
C208       C1602   1.580       .  S
C208       C1835   1.606       .  S
C209       C1542   1.623       .  S
C209       C1552   1.631       .  S
C209       C1562   1.622       .  S
C209       C1572   1.632       .  S
C210       C1512   1.624   1_655  S
C210       C1522   1.623       .  S
C210       C1532   1.610       .  S
C210       C1845   1.632       .  S
Zr211       O212   2.434       .  S
Zr211       O213   2.424       .  S
Zr211       O214   2.507       .  S
Zr211       O217   2.501       .  S
Zr211       O219   2.381       .  S
Zr211       O220   2.384       .  S
Zr211       O221   2.426       .  S
Zr211       O222   2.429       .  S
O212        H268   0.990       .  S
O212        H276   0.990       .  S
O213        C233   1.282       .  A
O214        C235   1.301       .  A
O215       Zr225   2.355       .  S
O215        C234   1.273       .  A
O216       Zr224   2.375       .  S
O216        C235   1.272       .  A
O217        C234   1.295       .  A
O218       Zr226   2.498       .  S
O218        C233   1.298       .  A
O219       Zr224   2.379       .  S
O219       Zr226   2.360       .  S
O220       Zr225   2.371       .  S
O220       Zr226   2.346       .  S
O220        H255   0.964       .  S
O221       Zr224   2.389       .  S
O221       Zr241   2.417       .  S
O221        H258   0.968       .  S
O222       Zr225   2.389       .  S
O222       Zr241   2.422       .  S
Zr223       O248   2.434       .  S
Zr223       O242   2.469       .  S
Zr223       O250   2.543       .  S
Zr223       O238   2.455       .  S
Zr223       O229   2.411       .  S
Zr223       O230   2.444       .  S
Zr223       O231   2.391       .  S
Zr223       O232   2.368       .  S
Zr224       O243   2.435       .  S
Zr224       O236   2.437       .  S
Zr224       O237   2.373       .  S
Zr224       O230   2.388       .  S
Zr224       O231   2.379       .  S
Zr225       O227   2.434       .  S
Zr225       O249   2.437       .  S
Zr225       O251   2.368       .  S
Zr225       O229   2.370       .  S
Zr225       O232   2.375       .  S
Zr226       O252   2.434       .  S
Zr226       O253   2.436       .  S
Zr226       O228   2.440       .  S
Zr226       O229   2.429       .  S
Zr226       O230   2.411       .  S
O227        H264   0.990       .  S
O228        H259   0.990       .  S
O228        H273   0.990       .  S
O230        H256   0.962       .  S
O231       Zr241   2.360       .  S
O232       Zr241   2.370       .  S
O232        H257   0.966       .  S
C233       C1575   1.512       .  S
C234       C1505   1.496       .  S
C235       C1755   1.485       .  S
O236        H272   0.990       .  S
O237        C239   1.274       .  A
O238        C239   1.291       .  A
C239       C1492   1.477       .  S
O240       Zr241   2.436       .  S
O240        H269   0.990       .  S
Zr241       O244   2.436       .  S
Zr241       O245   2.438       .  S
Zr241       O246   2.481       .  S
O242        C247   1.292       .  A
O243        H260   0.990       .  S
O243        H275   0.989       .  S
O244        H261   0.990       .  S
O245        H265   0.990       .  S
O245        H274   0.990       .  S
O246        C247   1.293       .  A
C247       C1482   1.518       .  S
O248        H267   0.990       .  S
O248        H271   0.990       .  S
O249        H263   0.990       .  S
O249        H270   0.989       .  S
O250        C254   1.305       .  A
O251        C254   1.272       .  A
O252        H262   0.990       .  S
O253        H266   0.990       .  S
C254       C1515   1.505       .  S
C277       C1452   1.651       .  S
C277       C1462   1.647       .  S
C277       C1472   1.627       .  S
C277       C1485   1.637   1_556  S
C278       C1425   1.622       .  S
C278       C1432   1.632       .  S
C278       C1445   1.606       .  S
C278       C1915   1.597       .  S
Zr279       O280   2.437       .  S
Zr279       O281   2.462       .  S
Zr279       O282   2.468       .  S
Zr279       O285   2.484       .  S
Zr279       O287   2.389       .  S
Zr279       O288   2.382       .  S
Zr279       O289   2.431       .  S
Zr279       O290   2.435       .  S
O280        H336   0.990       .  S
O280        H344   0.990       .  S
O281        C301   1.291       .  A
O282        C303   1.291       .  A
O283       Zr293   2.450       .  S
O283        C302   1.287       .  A
O284       Zr292   2.403       .  S
O284        C303   1.278       .  A
O285        C302   1.294       .  A
O286       Zr294   2.425       .  S
O286        C301   1.282       .  A
O287       Zr292   2.380       .  S
O287       Zr294   2.381       .  S
O288       Zr293   2.387       .  S
O288       Zr294   2.366       .  S
O288        H323   0.960       .  S
O289       Zr292   2.391       .  S
O289       Zr309   2.404       .  S
O289        H326   0.965       .  S
O290       Zr293   2.369       .  S
O290       Zr309   2.429       .  S
Zr291       O316   2.436       .  S
Zr291       O310   2.415       .  S
Zr291       O318   2.495       .  S
Zr291       O306   2.538       .  S
Zr291       O297   2.410       .  S
Zr291       O298   2.403       .  S
Zr291       O299   2.376       .  S
Zr291       O300   2.415       .  S
Zr292       O311   2.444       .  S
Zr292       O304   2.432       .  S
Zr292       O305   2.385       .  S
Zr292       O298   2.391       .  S
Zr292       O299   2.381       .  S
Zr293       O295   2.433       .  S
Zr293       O317   2.445       .  S
Zr293       O319   2.383       .  S
Zr293       O297   2.409       .  S
Zr293       O300   2.389       .  S
Zr294       O320   2.436       .  S
Zr294       O321   2.435       .  S
Zr294       O296   2.435       .  S
Zr294       O297   2.382       .  S
Zr294       O298   2.398       .  S
O295        H332   0.990       .  S
O296        H327   0.990       .  S
O296        H341   0.989       .  S
O298        H324   0.968       .  S
O299       Zr309   2.362       .  S
O300       Zr309   2.374       .  S
O300        H325   0.965       .  S
C301       C1655   1.489       .  S
C302       C1405   1.512       .  S
C303       C1442   1.484       .  S
O304        H340   0.990       .  S
O305        C307   1.273       .  A
O306        C307   1.303       .  A
C307       C1415   1.530       .  S
O308       Zr309   2.437       .  S
O308        H337   0.990       .  S
Zr309       O312   2.436       .  S
Zr309       O313   2.442       .  S
Zr309       O314   2.451       .  S
O310        C315   1.279       .  A
O311        H328   0.989       .  S
O311        H343   0.989       .  S
O312        H329   0.990       .  S
O313        H333   0.990       .  S
O313        H342   0.990       .  S
O314        C315   1.287       .  A
C315       C1725   1.496       .  S
O316        H335   0.990       .  S
O316        H339   0.990       .  S
O317        H331   0.990       .  S
O317        H338   0.989       .  S
O318        C322   1.296       .  A
O319        C322   1.276       .  A
O320        H330   0.990       .  S
O321        H334   0.990       .  S
C322       C1395   1.485       .  S
C345       C1372   1.624       .  S
C345       C1385   1.626       .  S
C345       C1392   1.610       .  S
C345       C1935   1.615   1_455  S
Zr346       O347   2.438       .  S
Zr346       O348   2.413       .  S
Zr346       O349   2.478       .  S
Zr346       O352   2.471       .  S
Zr346       O354   2.386       .  S
Zr346       O355   2.384       .  S
Zr346       O356   2.400       .  S
Zr346       O357   2.397       .  S
O347        H403   0.990       .  S
O347        H411   0.991       .  S
O348        C368   1.282       .  A
O349        C370   1.293       .  A
O350       Zr360   2.401       .  S
O350        C369   1.279       .  A
O351       Zr359   2.417       .  S
O351        C370   1.282       .  A
O352        C369   1.293       .  A
O353       Zr361   2.401       .  S
O353        C368   1.275       .  A
O354       Zr359   2.389       .  S
O354       Zr361   2.376       .  S
O355       Zr360   2.386       .  S
O355       Zr361   2.371       .  S
O355        H390   0.966       .  S
O356       Zr359   2.395       .  S
O356       Zr376   2.380       .  S
O356        H393   0.963       .  S
O357       Zr360   2.391       .  S
O357       Zr376   2.380       .  S
Zr358       O383   2.438       .  S
Zr358       O377   2.401       .  S
Zr358       O385   2.472       .  S
Zr358       O373   2.458       .  S
Zr358       O364   2.391       .  S
Zr358       O365   2.398       .  S
Zr358       O366   2.388       .  S
Zr358       O367   2.382       .  S
Zr359       O378   2.437       .  S
Zr359       O371   2.436       .  S
Zr359       O372   2.428       .  S
Zr359       O365   2.398       .  S
Zr359       O366   2.379       .  S
Zr360       O362   2.436       .  S
Zr360       O384   2.439       .  S
Zr360       O386   2.411       .  S
Zr360       O364   2.399       .  S
Zr360       O367   2.373       .  S
Zr361       O387   2.434       .  S
Zr361       O388   2.435       .  S
Zr361       O363   2.438       .  S
Zr361       O364   2.398       .  S
Zr361       O365   2.377       .  S
O362        H399   0.990       .  S
O363        H394   0.990       .  S
O363        H408   0.990       .  S
O365        H391   0.965       .  S
O366       Zr376   2.385       .  S
O367       Zr376   2.384       .  S
O367        H392   0.964       .  S
C368       C1605   1.472       .  S
C369       C1362   1.480       .  S
C370       C1612   1.485       .  S
O371        H407   0.990       .  S
O372        C374   1.285       .  A
O373        C374   1.289       .  A
C374       C1352   1.486       .  S
O375       Zr376   2.435       .  S
O375        H404   0.990       .  S
Zr376       O379   2.436       .  S
Zr376       O380   2.435       .  S
Zr376       O381   2.381       .  S
O377        C382   1.281       .  A
O378        H395   0.990       .  S
O378        H410   0.990       .  S
O379        H396   0.991       .  S
O380        H400   0.990       .  S
O380        H409   0.989       .  S
O381        C382   1.273       .  A
C382       C1345   1.453       .  S
O383        H402   0.990       .  S
O383        H406   0.990       .  S
O384        H398   0.990       .  S
O384        H405   0.990       .  S
O385        C389   1.292       .  A
O386        C389   1.280       .  A
O387        H397   0.990       .  S
O388        H401   0.990       .  S
C389       C1685   1.489       .  S
C412       C1322   1.590       .  S
C412       C1332   1.568       .  S
C412       C1342   1.580       .  S
C412       C1815   1.589   1_545  S
C413       C1292   1.594       .  S
C413       C1302   1.616       .  S
C413       C1315   1.580       .  S
C413       C1355   1.605   1_455  S
Zr414       O415   2.438       .  S
Zr414       O416   2.453       .  S
Zr414       O417   2.459       .  S
Zr414       O420   2.465       .  S
Zr414       O422   2.384       .  S
Zr414       O423   2.382       .  S
Zr414       O424   2.418       .  S
Zr414       O425   2.411       .  S
O415        H471   0.990       .  S
O415        H479   0.990       .  S
O416        C436   1.288       .  A
O417        C438   1.288       .  A
O418       Zr428   2.392       .  S
O418        C437   1.277       .  A
O419       Zr427   2.393       .  S
O419        C438   1.278       .  A
O420        C437   1.290       .  A
O421       Zr429   2.426       .  S
O421        C436   1.283       .  A
O422       Zr427   2.398       .  S
O422       Zr429   2.382       .  S
O423       Zr428   2.383       .  S
O423       Zr429   2.367       .  S
O423        H458   0.969       .  S
O424       Zr427   2.398       .  S
O424       Zr444   2.405       .  S
O424        H461   0.967       .  S
O425       Zr428   2.381       .  S
O425       Zr444   2.402       .  S
Zr426       O451   2.445       .  S
Zr426       O445   2.445       .  S
Zr426       O453   2.405       .  S
Zr426       O441   2.418       .  S
Zr426       O432   2.397       .  S
Zr426       O433   2.398       .  S
Zr426       O434   2.379       .  S
Zr426       O435   2.381       .  S
Zr427       O446   2.438       .  S
Zr427       O439   2.435       .  S
Zr427       O440   2.418       .  S
Zr427       O433   2.385       .  S
Zr427       O434   2.381       .  S
Zr428       O430   2.436       .  S
Zr428       O452   2.435       .  S
Zr428       O454   2.382       .  S
Zr428       O432   2.389       .  S
Zr428       O435   2.388       .  S
Zr429       O455   2.436       .  S
Zr429       O456   2.437       .  S
Zr429       O431   2.435       .  S
Zr429       O432   2.390       .  S
Zr429       O433   2.384       .  S
O430        H467   0.990       .  S
O431        H462   0.989       .  S
O431        H476   0.990       .  S
O433        H459   0.963       .  S
O434       Zr444   2.386       .  S
O435       Zr444   2.375       .  S
O435        H460   0.962       .  S
C436       C1282   1.493       .  S
C437       C1242   1.482       .  S
C438       C1262   1.473       .  S
O439        H475   0.990       .  S
O440        C442   1.284       .  A
O441        C442   1.278       .  A
C442       C1272   1.470       .  S
O443       Zr444   2.437       .  S
O443        H472   0.990       .  S
Zr444       O447   2.437       .  S
Zr444       O448   2.441       .  S
Zr444       O449   2.438       .  S
O445        C450   1.287       .  A
O446        H463   0.990       .  S
O446        H478   0.990       .  S
O447        H464   0.990       .  S
O448        H468   0.990       .  S
O448        H477   0.989       .  S
O449        C450   1.284       .  A
C450       C1252   1.497       .  S
O451        H470   0.991       .  S
O451        H474   0.991       .  S
O452        H466   0.990       .  S
O452        H473   0.989       .  S
O453        C457   1.275       .  A
O454        C457   1.275       .  A
O455        H465   0.991       .  S
O456        H469   0.990       .  S
C457       C1312   1.443       .  S
C480       C1222   1.611       .  S
C480       C1232   1.620       .  S
C480       C1285   1.619   1_556  S
C480       C1402   1.629       .  S
C481       C1205   1.597       .  S
C481       C1215   1.603       .  S
C481       C1275   1.581       .  S
C481       C1495   1.590   1_545  S
Zr482       O483   2.439   1_545  S
Zr482       O484   2.456       .  S
Zr482       O485   2.392       .  S
Zr482       O488   2.415       .  S
Zr482       O490   2.381   1_455  S
Zr482       O491   2.369       .  S
Zr482       O492   2.420   1_545  S
Zr482       O493   2.402   1_545  S
O483        H539   0.991   1_565  S
O483        H547   0.990       .  S
O484        C504   1.286       .  A
O485        C506   1.274   1_445  A
O486       Zr496   2.450       .  S
O486        C505   1.287       .  A
O487       Zr495   2.398       .  S
O487        C506   1.279       .  A
O488        C505   1.280       .  A
O489       Zr497   2.420       .  S
O489        C504   1.279   1_655  A
O490       Zr495   2.381   1_545  S
O490       Zr497   2.367       .  S
O491       Zr496   2.375       .  S
O491       Zr497   2.382   1_455  S
O491        H526   0.964       .  S
O492       Zr495   2.392   1_455  S
O492       Zr512   2.408       .  S
O492        H529   0.967       .  S
O493       Zr496   2.376   1_565  S
O493       Zr512   2.412       .  S
Zr494       O519   2.439       .  S
Zr494       O513   2.435       .  S
Zr494       O521   2.422   1_655  S
Zr494       O509   2.477       .  S
Zr494       O500   2.404   1_665  S
Zr494       O501   2.392   1_565  S
Zr494       O502   2.378       .  S
Zr494       O503   2.391   1_655  S
Zr495       O514   2.440       .  S
Zr495       O507   2.433   1_565  S
Zr495       O508   2.419       .  S
Zr495       O501   2.387   1_565  S
Zr495       O502   2.387       .  S
Zr496       O498   2.437   1_545  S
Zr496       O520   2.440       .  S
Zr496       O522   2.391       .  S
Zr496       O500   2.405       .  S
Zr496       O503   2.398   1_545  S
Zr497       O523   2.434   1_655  S
Zr497       O524   2.435       .  S
Zr497       O499   2.437       .  S
Zr497       O500   2.385   1_655  S
Zr497       O501   2.389       .  S
O498        H535   0.990       .  S
O499        H530   0.990       .  S
O499        H544   0.990       .  S
O501        H527   0.966       .  S
O502       Zr512   2.379   1_655  S
O503       Zr512   2.369       .  S
O503        H528   0.965       .  S
C504       C1305   1.511       .  S
C505       C1195   1.481       .  S
C506       C1335   1.439   1_565  S
O507        H543   0.990   1_545  S
O508        C510   1.281       .  A
O509        C510   1.292       .  A
C510       C1855   1.491       .  S
O511       Zr512   2.442       .  S
O511        H540   0.989       .  S
Zr512       O515   2.438       .  S
Zr512       O516   2.441       .  S
Zr512       O517   2.458       .  S
O513        C518   1.285   1_655  A
O514        H531   0.990       .  S
O514        H546   0.990       .  S
O515        H532   0.990   1_455  S
O516        H536   0.990       .  S
O516        H545   0.989       .  S
O517        C518   1.288       .  A
C518       C1185   1.503   1_455  S
O519        H538   0.990       .  S
O519        H542   0.990       .  S
O520        H534   0.990       .  S
O520        H541   0.990       .  S
O521        C525   1.284       .  A
O522        C525   1.277   1_545  A
O523        H533   0.990       .  S
O524        H537   0.990       .  S
C525       C1732   1.448       .  S
Zr548       O549   2.435       .  S
Zr548       O550   2.389       .  S
Zr548       O551   2.496       .  S
Zr548       O554   2.506       .  S
Zr548       O556   2.408   1_545  S
Zr548       O557   2.396   1_455  S
Zr548       O558   2.413   1_556  S
Zr548       O559   2.403       .  S
O549        H605   0.990       .  S
O549        H613   0.990       .  S
O550        C570   1.277       .  A
O551        C572   1.296   1_545  A
O552       Zr562   2.425       .  S
O552        C571   1.284   1_655  A
O553       Zr561   2.422       .  S
O553        C572   1.283       .  A
O554        C571   1.300       .  A
O555       Zr563   2.415   1_455  S
O555        C570   1.283   1_565  A
O556       Zr561   2.376       .  S
O556       Zr563   2.377   1_455  S
O557       Zr562   2.379       .  S
O557       Zr563   2.364   1_545  S
O557        H592   0.964       .  S
O558       Zr561   2.411   1_544  S
O558       Zr578   2.374       .  S
O558        H595   0.961       .  S
O559       Zr562   2.387   1_455  S
O559       Zr578   2.399   1_556  S
Zr560       O585   2.435       .  S
Zr560       O579   2.402   1_556  S
Zr560       O587   2.461   1_565  S
Zr560       O575   2.458   1_556  S
Zr560       O566   2.398   1_565  S
Zr560       O567   2.411       .  S
Zr560       O568   2.387   1_656  S
Zr560       O569   2.389   1_566  S
Zr561       O580   2.443   1_556  S
Zr561       O573   2.432       .  S
Zr561       O574   2.420   1_556  S
Zr561       O567   2.384   1_455  S
Zr561       O568   2.388   1_556  S
Zr562       O564   2.433       .  S
Zr562       O586   2.435       .  S
Zr562       O588   2.411       .  S
Zr562       O566   2.392       .  S
Zr562       O569   2.371   1_556  S
Zr563       O589   2.434   1_565  S
Zr563       O590   2.437       .  S
Zr563       O565   2.439       .  S
Zr563       O566   2.388   1_565  S
Zr563       O567   2.395       .  S
O564        H601   0.990       .  S
O565        H596   0.990       .  S
O565        H610   0.990   1_655  S
O567        H593   0.967       .  S
O568       Zr578   2.371   1_565  S
O569       Zr578   2.372   1_655  S
O569        H594   0.965       .  S
C570       C1742   1.455       .  S
C571       C1382   1.514       .  S
C572       C1475   1.509       .  S
O573        H609   0.990       .  S
O574        C576   1.282   1_455  A
O575        C576   1.288       .  A
C576       C1535   1.490       .  S
O577       Zr578   2.436       .  S
O577        H606   0.990       .  S
Zr578       O581   2.436       .  S
Zr578       O582   2.439       .  S
Zr578       O583   2.406   1_455  S
O579        C584   1.279   1_565  A
O580        H597   0.990       .  S
O580        H612   0.988       .  S
O581        H598   0.990       .  S
O582        H602   0.991       .  S
O582        H611   0.990   1_455  S
O583        C584   1.280       .  A
C584       C1325   1.458       .  S
O585        H604   0.990       .  S
O585        H608   0.990       .  S
O586        H600   0.990       .  S
O586        H607   0.989       .  S
O587        C591   1.290       .  A
O588        C591   1.282       .  A
O589        H599   0.990       .  S
O590        H603   0.990       .  S
C591       C1705   1.492       .  S
Zr614       O615   2.435       .  S
Zr614       O616   2.414       .  S
Zr614       O617   2.521       .  S
Zr614       O620   2.555   1_545  S
Zr614       O622   2.395       .  S
Zr614       O623   2.393   1_545  S
Zr614       O624   2.420       .  S
Zr614       O625   2.412       .  S
O615        H671   0.991       .  S
O615        H679   0.990       .  S
O616        C636   1.281       .  A
O617        C638   1.303       .  A
O618       Zr628   2.442       .  S
O618        C637   1.285       .  A
O619       Zr627   2.389       .  S
O619        C638   1.277       .  A
O620        C637   1.310       .  A
O621       Zr629   2.437       .  S
O621        C636   1.283   1_565  A
O622       Zr627   2.389       .  S
O622       Zr629   2.371   1_545  S
O623       Zr628   2.395       .  S
O623       Zr629   2.377       .  S
O623        H658   0.964       .  S
O624       Zr627   2.403       .  S
O624       Zr644   2.398       .  S
O624        H661   0.963       .  S
O625       Zr628   2.391   1_545  S
O625       Zr644   2.406       .  S
Zr626       O651   2.436       .  S
Zr626       O645   2.424       .  S
Zr626       O653   2.497       .  S
Zr626       O641   2.514   1_565  S
Zr626       O632   2.420       .  S
Zr626       O633   2.410       .  S
Zr626       O634   2.381   1_565  S
Zr626       O635   2.396       .  S
Zr627       O646   2.437       .  S
Zr627       O639   2.435       .  S
Zr627       O640   2.421       .  S
Zr627       O633   2.388   1_545  S
Zr627       O634   2.374       .  S
Zr628       O630   2.434       .  S
Zr628       O652   2.436       .  S
Zr628       O654   2.419       .  S
Zr628       O632   2.398       .  S
Zr628       O635   2.391       .  S
Zr629       O655   2.435       .  S
Zr629       O656   2.436       .  S
Zr629       O631   2.441       .  S
Zr629       O632   2.398       .  S
Zr629       O633   2.406       .  S
O630        H667   0.990       .  S
O631        H662   0.990   1_565  S
O631        H676   0.990       .  S
O633        H659   0.968       .  S
O634       Zr644   2.377       .  S
O635       Zr644   2.372   1_565  S
O635        H660   0.965       .  S
C636       C1965   1.473       .  S
C637       C1865   1.536       .  S
C638       C1435   1.501       .  S
O639        H675   0.990       .  S
O640        C642   1.281       .  A
O641        C642   1.300       .  A
C642       C1172   1.508       .  S
O643       Zr644   2.438       .  S
O643        H672   0.990       .  S
Zr644       O647   2.436       .  S
Zr644       O648   2.441       .  S
Zr644       O649   2.444       .  S
O645        C650   1.284   1_565  A
O646        H663   0.990       .  S
O646        H678   0.990       .  S
O647        H664   0.990       .  S
O648        H668   0.990       .  S
O648        H677   0.990   1_545  S
O649        C650   1.287       .  A
C650       C1212   1.490       .  S
O651        H670   0.990       .  S
O651        H674   0.990       .  S
O652        H666   0.991       .  S
O652        H673   0.989       .  S
O653        C657   1.298       .  A
O654        C657   1.284       .  A
O655        H665   0.990       .  S
O656        H669   0.990       .  S
C657       C1772   1.509       .  S
C680       C1175   1.632       .  S
C680       C1192   1.601       .  S
C680       C1255   1.634       .  S
C680       C1412   1.640       .  S
Zr681       O682   2.437       .  S
Zr681       O683   2.423       .  S
Zr681       O684   2.534       .  S
Zr681       O687   2.506       .  S
Zr681       O689   2.393   1_545  S
Zr681       O690   2.403       .  S
Zr681       O691   2.419   1_554  S
Zr681       O692   2.427   1_554  S
O682        H738   0.990       .  S
O682        H746   0.990   1_554  S
O683        C703   1.285       .  A
O684        C705   1.303   1_544  A
O685       Zr695   2.423       .  S
O685        C704   1.282       .  A
O686       Zr694   2.397       .  S
O686        C705   1.277       .  A
O687        C704   1.299       .  A
O688       Zr696   2.408   1_545  S
O688        C703   1.278       .  A
O689       Zr694   2.383   1_554  S
O689       Zr696   2.388       .  S
O690       Zr695   2.392       .  S
O690       Zr696   2.363   1_545  S
O690        H725   0.963       .  S
O691       Zr694   2.403   1_545  S
O691       Zr711   2.385       .  S
O691        H728   0.962       .  S
O692       Zr695   2.382   1_556  S
O692       Zr711   2.408       .  S
Zr693       O718   2.440       .  S
Zr693       O712   2.413       .  S
Zr693       O720   2.450   1_565  S
Zr693       O708   2.487       .  S
Zr693       O699   2.405   1_566  S
Zr693       O700   2.393   1_556  S
Zr693       O701   2.377       .  S
Zr693       O702   2.401   1_565  S
Zr694       O713   2.441       .  S
Zr694       O706   2.431   1_556  S
Zr694       O707   2.410       .  S
Zr694       O700   2.384   1_556  S
Zr694       O701   2.384       .  S
Zr695       O697   2.431   1_554  S
Zr695       O719   2.440       .  S
Zr695       O721   2.408   1_554  S
Zr695       O699   2.395       .  S
Zr695       O702   2.372   1_554  S
Zr696       O722   2.438   1_565  S
Zr696       O723   2.436       .  S
Zr696       O698   2.437       .  S
Zr696       O699   2.383   1_565  S
Zr696       O700   2.393       .  S
O697        H734   0.990       .  S
O698        H729   0.990       .  S
O698        H743   0.990       .  S
O700        H726   0.966       .  S
O701       Zr711   2.381   1_565  S
O702       Zr711   2.373       .  S
O702        H727   0.963       .  S
C703       C1202   1.464       .  S
C704       C1165   1.515       .  S
C705       C1465   1.513       .  S
O706        H742   0.990       .  S
O707        C709   1.279       .  A
O708        C709   1.293       .  A
C709       C1155   1.512       .  S
O710       Zr711   2.436       .  S
O710        H739   0.990       .  S
Zr711       O714   2.435       .  S
Zr711       O715   2.441       .  S
Zr711       O716   2.428       .  S
O712        C717   1.279   1_565  A
O713        H730   0.990       .  S
O713        H745   0.988       .  S
O714        H731   0.990   1_545  S
O715        H735   0.990       .  S
O715        H744   0.990       .  S
O716        C717   1.280       .  A
C717       C1955   1.495       .  S
O718        H737   0.990       .  S
O718        H741   0.990       .  S
O719        H733   0.990       .  S
O719        H740   0.989       .  S
O720        C724   1.287       .  A
O721        C724   1.280       .  A
O722        H732   0.990       .  S
O723        H736   0.990       .  S
C724       C1695   1.476       .  S
C747       C1142   1.604       .  S
C747       C1162   1.619       .  S
C747       C1265   1.598       .  S
C747       C1365   1.616       .  S
Zr748       O749   2.439       .  S
Zr748       O750   2.418       .  S
Zr748       O751   2.467       .  S
Zr748       O754   2.448       .  S
Zr748       O756   2.388       .  S
Zr748       O757   2.387       .  S
Zr748       O758   2.408   1_556  S
Zr748       O759   2.404   1_556  S
O749        H805   0.990       .  S
O749        H813   0.990       .  S
O750        C770   1.284       .  A
O751        C772   1.289       .  A
O752       Zr762   2.430   1_556  S
O752        C771   1.283       .  A
O753       Zr761   2.398       .  S
O753        C772   1.278       .  A
O754        C771   1.285       .  A
O755       Zr763   2.385       .  S
O755        C770   1.274       .  A
O756       Zr761   2.377       .  S
O756       Zr763   2.392       .  S
O757       Zr762   2.369   1_556  S
O757       Zr763   2.381       .  S
O757        H792   0.963       .  S
O758       Zr761   2.390   1_554  S
O758       Zr778   2.385       .  S
O758        H795   0.965       .  S
O759       Zr762   2.383       .  S
O759       Zr778   2.407       .  S
Zr760       O785   2.439       .  S
Zr760       O779   2.419       .  S
Zr760       O787   2.478       .  S
Zr760       O775   2.509       .  S
Zr760       O766   2.414   1_554  S
Zr760       O767   2.403   1_554  S
Zr760       O768   2.380       .  S
Zr760       O769   2.408       .  S
Zr761       O780   2.435       .  S
Zr761       O773   2.434       .  S
Zr761       O774   2.373       .  S
Zr761       O767   2.391       .  S
Zr761       O768   2.388   1_556  S
Zr762       O764   2.431       .  S
Zr762       O786   2.441       .  S
Zr762       O788   2.403       .  S
Zr762       O766   2.401   1_554  S
Zr762       O769   2.390       .  S
Zr763       O789   2.435       .  S
Zr763       O790   2.435       .  S
Zr763       O765   2.438       .  S
Zr763       O766   2.372       .  S
Zr763       O767   2.389       .  S
O764        H801   0.990       .  S
O765        H796   0.990       .  S
O765        H810   0.990       .  S
O767        H793   0.965       .  S
O768       Zr778   2.371       .  S
O769       Zr778   2.361       .  S
O769        H794   0.963       .  S
C770       C1665   1.455       .  S
C771       C1235   1.488       .  S
C772       C1132   1.486       .  S
O773        H809   0.990       .  S
O774        C776   1.273   1_556  A
O775        C776   1.300       .  A
C776       C1795   1.494   1_554  S
O777       Zr778   2.440       .  S
O777        H806   0.990       .  S
Zr778       O781   2.439       .  S
Zr778       O782   2.437       .  S
Zr778       O783   2.432       .  S
O779        C784   1.281       .  A
O780        H797   0.990       .  S
O780        H812   0.989   1_556  S
O781        H798   0.990       .  S
O782        H802   0.990       .  S
O782        H811   0.990       .  S
O783        C784   1.285       .  A
C784       C1585   1.479       .  S
O785        H804   0.990       .  S
O785        H808   0.990       .  S
O786        H800   0.990   1_554  S
O786        H807   0.991       .  S
O787        C791   1.289       .  A
O788        C791   1.271       .  A
O789        H799   0.990       .  S
O790        H803   0.990       .  S
C791       C1145   1.484       .  S
Zr814       O815   2.435       .  S
Zr814       O816   2.401       .  S
Zr814       O817   2.512       .  S
Zr814       O820   2.540       .  S
Zr814       O822   2.388       .  S
Zr814       O823   2.386       .  S
Zr814       O824   2.421       .  S
Zr814       O825   2.408       .  S
O815        H871   0.990       .  S
O815        H879   0.990       .  S
O816        C836   1.279       .  A
O817        C838   1.301       .  A
O818       Zr828   2.358       .  S
O818        C837   1.270       .  A
O819       Zr827   2.391       .  S
O819        C838   1.273   1_655  A
O820        C837   1.303       .  A
O821       Zr829   2.467   1_455  S
O821        C836   1.293       .  A
O822       Zr827   2.393   1_455  S
O822       Zr829   2.358   1_455  S
O823       Zr828   2.366       .  S
O823       Zr829   2.363   1_455  S
O823        H858   0.965       .  S
O824       Zr827   2.410   1_455  S
O824       Zr844   2.389       .  S
O824        H861   0.966       .  S
O825       Zr828   2.389       .  S
O825       Zr844   2.381       .  S
Zr826       O851   2.436       .  S
Zr826       O845   2.438       .  S
Zr826       O853   2.476       .  S
Zr826       O841   2.467       .  S
Zr826       O832   2.406       .  S
Zr826       O833   2.403       .  S
Zr826       O834   2.380       .  S
Zr826       O835   2.377   1_655  S
Zr827       O846   2.442       .  S
Zr827       O839   2.439       .  S
Zr827       O840   2.442       .  S
Zr827       O833   2.375       .  S
Zr827       O834   2.366       .  S
Zr828       O830   2.436       .  S
Zr828       O852   2.437       .  S
Zr828       O854   2.396       .  S
Zr828       O832   2.369   1_455  S
Zr828       O835   2.362       .  S
Zr829       O855   2.435       .  S
Zr829       O856   2.436       .  S
Zr829       O831   2.437       .  S
Zr829       O832   2.416       .  S
Zr829       O833   2.412       .  S
O830        H867   0.990       .  S
O831        H862   0.990       .  S
O831        H876   0.990       .  S
O833        H859   0.967       .  S
O834       Zr844   2.380   1_655  S
O835       Zr844   2.378       .  S
O835        H860   0.967       .  S
C836       C1125   1.479       .  S
C837       C1565   1.526       .  S
C838       C1295   1.509       .  S
O839        H875   0.990       .  S
O840        C842   1.284       .  A
O841        C842   1.290       .  A
C842       C1635   1.527       .  S
O843       Zr844   2.436       .  S
O843        H872   0.990       .  S
Zr844       O847   2.436       .  S
Zr844       O848   2.438       .  S
Zr844       O849   2.400   1_455  S
O845        C850   1.288       .  A
O846        H863   0.990       .  S
O846        H878   0.991       .  S
O847        H864   0.990       .  S
O848        H868   0.990       .  S
O848        H877   0.989       .  S
O849        C850   1.278       .  A
C850       C1885   1.468       .  S
O851        H870   0.990       .  S
O851        H874   0.990       .  S
O852        H866   0.989       .  S
O852        H873   0.989       .  S
O853        C857   1.293       .  A
O854        C857   1.277   1_455  A
O855        H865   0.991       .  S
O856        H869   0.990       .  S
C857       C1115   1.489       .  S
Zr880       O881   2.437       .  S
Zr880       O882   2.446       .  S
Zr880       O883   2.481       .  S
Zr880       O886   2.474       .  S
Zr880       O888   2.380       .  S
Zr880       O889   2.383   1_455  S
Zr880       O890   2.416       .  S
Zr880       O891   2.420       .  S
O881        H937   0.991       .  S
O881        H945   0.990       .  S
O882        C902   1.285       .  A
O883        C904   1.293       .  A
O884       Zr894   2.392       .  S
O884        C903   1.278       .  A
O885       Zr893   2.409   1_556  S
O885        C904   1.278       .  A
O886        C903   1.293   1_455  A
O887       Zr895   2.467       .  S
O887        C902   1.291   1_655  A
O888       Zr893   2.385   1_556  S
O888       Zr895   2.374   1_455  S
O889       Zr894   2.389       .  S
O889       Zr895   2.361       .  S
O889        H924   0.965       .  S
O890       Zr893   2.394   1_556  S
O890       Zr910   2.408       .  S
O890        H927   0.963       .  S
O891       Zr894   2.400   1_455  S
O891       Zr910   2.408       .  S
Zr892       O917   2.435       .  S
Zr892       O911   2.435       .  S
Zr892       O919   2.454       .  S
Zr892       O907   2.442   1_655  S
Zr892       O898   2.405   1_554  S
Zr892       O899   2.419   1_655  S
Zr892       O900   2.382   1_655  S
Zr892       O901   2.378   1_554  S
Zr893       O912   2.437       .  S
Zr893       O905   2.435       .  S
Zr893       O906   2.400       .  S
Zr893       O899   2.394       .  S
Zr893       O900   2.379       .  S
Zr894       O896   2.436       .  S
Zr894       O918   2.436       .  S
Zr894       O920   2.425       .  S
Zr894       O898   2.384       .  S
Zr894       O901   2.372       .  S
Zr895       O921   2.436       .  S
Zr895       O922   2.435   1_556  S
Zr895       O897   2.438   1_656  S
Zr895       O898   2.412       .  S
Zr895       O899   2.412   1_656  S
O896        H933   0.990       .  S
O897        H928   0.990       .  S
O897        H942   0.990       .  S
O899        H925   0.963       .  S
O900       Zr910   2.360   1_554  S
O901       Zr910   2.370   1_655  S
O901        H926   0.961       .  S
C902       C1375   1.514       .  S
C903       C1895   1.477       .  S
C904       C1225   1.487       .  S
O905        H941   0.990       .  S
O906        C908   1.281       .  A
O907        C908   1.286       .  A
C908       C1102   1.475       .  S
O909       Zr910   2.439       .  S
O909        H938   0.991       .  S
Zr910       O913   2.438   1_556  S
Zr910       O914   2.439       .  S
Zr910       O915   2.455   1_556  S
O911        C916   1.283       .  A
O912        H929   0.990       .  S
O912        H944   0.990       .  S
O913        H930   0.990       .  S
O914        H934   0.990   1_455  S
O914        H943   0.990   1_455  S
O915        C916   1.287   1_455  A
C916       C1525   1.520       .  S
O917        H936   0.990       .  S
O917        H940   0.990       .  S
O918        H932   0.989       .  S
O918        H939   0.990       .  S
O919        C923   1.288       .  A
O920        C923   1.283   1_556  A
O921        H931   0.990       .  S
O922        H935   0.990       .  S
C923       C1782   1.485       .  S
C946       C1105   1.599       .  S
C946       C1122   1.600       .  S
C946       C1245   1.629       .  S
C946       C1502   1.595       .  S
Zr947       O948   2.436       .  S
Zr947       O949   2.409       .  S
Zr947       O950   2.485       .  S
Zr947       O953   2.449       .  S
Zr947       O955   2.382       .  S
Zr947       O956   2.391       .  S
Zr947       O957   2.400       .  S
Zr947       O958   2.400       .  S
O948       H1004   0.990       .  S
O948       H1012   0.990       .  S
O949        C969   1.281       .  A
O950        C971   1.294       .  A
O951       Zr961   2.415       .  S
O951        C970   1.281       .  A
O952       Zr960   2.415       .  S
O952        C971   1.280       .  A
O953        C970   1.289       .  A
O954       Zr962   2.437       .  S
O954        C969   1.286       .  A
O955       Zr960   2.378       .  S
O955       Zr962   2.373       .  S
O956       Zr961   2.368       .  S
O956       Zr962   2.371       .  S
O956        H991   0.962       .  S
O957       Zr960   2.388       .  S
O957       Zr977   2.403       .  S
O957        H994   0.964       .  S
O958       Zr961   2.389       .  S
O958       Zr977   2.386       .  S
Zr959       O984   2.436       .  S
Zr959       O978   2.414       .  S
Zr959       O986   2.497       .  S
Zr959       O974   2.487       .  S
Zr959       O965   2.408       .  S
Zr959       O966   2.409       .  S
Zr959       O967   2.395       .  S
Zr959       O968   2.390       .  S
Zr960       O979   2.435       .  S
Zr960       O972   2.436       .  S
Zr960       O973   2.410       .  S
Zr960       O966   2.397       .  S
Zr960       O967   2.384       .  S
Zr961       O963   2.435       .  S
Zr961       O985   2.439       .  S
Zr961       O987   2.400       .  S
Zr961       O965   2.393       .  S
Zr961       O968   2.385       .  S
Zr962       O988   2.435       .  S
Zr962       O989   2.439       .  S
Zr962       O964   2.437       .  S
Zr962       O965   2.402       .  S
Zr962       O966   2.387       .  S
O963       H1000   0.991       .  S
O964        H995   0.989       .  S
O964       H1009   0.990       .  S
O966        H992   0.962       .  S
O967       Zr977   2.384       .  S
O968       Zr977   2.370       .  S
O968        H993   0.965       .  S
C969       C1595   1.479       .  S
C970       C1765   1.473       .  S
C971       C1622   1.498       .  S
O972       H1008   0.990       .  S
O973        C975   1.281       .  A
O974        C975   1.295       .  A
C975       C1422   1.505       .  S
O976       Zr977   2.435       .  S
O976       H1005   0.990       .  S
Zr977       O980   2.434       .  S
Zr977       O981   2.441       .  S
Zr977       O982   2.413       .  S
O978        C983   1.282       .  A
O979        H996   0.989       .  S
O979       H1011   0.990       .  S
O980        H997   0.990       .  S
O981       H1001   0.990       .  S
O981       H1010   0.990       .  S
O982        C983   1.280       .  A
C983       C1675   1.464       .  S
O984       H1003   0.990       .  S
O984       H1007   0.990       .  S
O985        H999   0.990       .  S
O985       H1006   0.990       .  S
O986        C990   1.297       .  A
O987        C990   1.279       .  A
O988        H998   0.990       .  S
O989       H1002   0.990       .  S
C990       C1555   1.494       .  S
C1013      C1092   1.627   1_655  S
C1013      C1112   1.618       .  S
C1013      C1182   1.613       .  S
C1013      C2035   1.622       .  S
Zr1014     O1015   2.436       .  S
Zr1014     O1016   2.455       .  S
Zr1014     O1017   2.499       .  S
Zr1014     O1020   2.441       .  S
Zr1014     O1022   2.381       .  S
Zr1014     O1023   2.398       .  S
Zr1014     O1024   2.406       .  S
Zr1014     O1025   2.437       .  S
O1015      H1071   0.990       .  S
O1015      H1079   0.990       .  S
O1016      C1036   1.289       .  A
O1017      C1038   1.296       .  A
O1018     Zr1028   2.382       .  S
O1018      C1037   1.275       .  A
O1019     Zr1027   2.412       .  S
O1019      C1038   1.281       .  A
O1020      C1037   1.286       .  A
O1021     Zr1029   2.457       .  S
O1021      C1036   1.288       .  A
O1022     Zr1027   2.374       .  S
O1022     Zr1029   2.384       .  S
O1023     Zr1028   2.407       .  S
O1023     Zr1029   2.353       .  S
O1023      H1058   0.960       .  S
O1024     Zr1027   2.381       .  S
O1024     Zr1044   2.387       .  S
O1024      H1061   0.964       .  S
O1025     Zr1028   2.381       .  S
O1025     Zr1044   2.407       .  S
Zr1026     O1051   2.437       .  S
Zr1026     O1045   2.465       .  S
Zr1026     O1053   2.538       .  S
Zr1026     O1041   2.518       .  S
Zr1026     O1032   2.409       .  S
Zr1026     O1033   2.423       .  S
Zr1026     O1034   2.397       .  S
Zr1026     O1035   2.396       .  S
Zr1027     O1046   2.440       .  S
Zr1027     O1039   2.434       .  S
Zr1027     O1040   2.360       .  S
Zr1027     O1033   2.403       .  S
Zr1027     O1034   2.394       .  S
Zr1028     O1030   2.432       .  S
Zr1028     O1052   2.446       .  S
Zr1028     O1054   2.418       .  S
Zr1028     O1032   2.396       .  S
Zr1028     O1035   2.360       .  S
Zr1029     O1055   2.435       .  S
Zr1029     O1056   2.436       .  S
Zr1029     O1031   2.436       .  S
Zr1029     O1032   2.412       .  S
Zr1029     O1033   2.395       .  S
O1030      H1067   0.990       .  S
O1031      H1062   0.990       .  S
O1031      H1076   0.989       .  S
O1033      H1059   0.966       .  S
O1034     Zr1044   2.378       .  S
O1035     Zr1044   2.385       .  S
O1035      H1060   0.962       .  S
C1036      C1095   1.499       .  S
C1037      C1715   1.457       .  S
C1038      C1545   1.509       .  S
O1039      H1075   0.989       .  S
O1040      C1042   1.271       .  A
O1041      C1042   1.302       .  A
C1042      C1645   1.484       .  S
O1043     Zr1044   2.437       .  S
O1043      H1072   0.990       .  S
Zr1044     O1047   2.435       .  S
Zr1044     O1048   2.442       .  S
Zr1044     O1049   2.420       .  S
O1045      C1050   1.291       .  A
O1046      H1063   0.990       .  S
O1046      H1078   0.991       .  S
O1047      H1064   0.990       .  S
O1048      H1068   0.990       .  S
O1048      H1077   0.990       .  S
O1049      C1050   1.280       .  A
C1050      C1085   1.481       .  S
O1051      H1070   0.990       .  S
O1051      H1074   0.990       .  S
O1052      H1066   0.990       .  S
O1052      H1073   0.988       .  S
O1053      C1057   1.304       .  A
O1054      C1057   1.281       .  A
O1055      H1065   0.990       .  S
O1056      H1069   0.990       .  S
C1057      C1455   1.534       .  S
C1080      C1082   1.601       .  S
C1080      C1135   1.612       .  S
C1080      C1152   1.613       .  S
C1080      C2005   1.623       .  S
C1081      C1082   1.455       .  A
C1081      C1086   1.415       .  A
C1081     Br1088   1.940       .  S
C1082      C1083   1.451       .  A
C1083      C1084   1.413       .  A
C1083     Br1090   1.932       .  S
C1084      C1085   1.396       .  A
C1084     Br1089   1.932       .  S
C1085      C1086   1.398       .  A
C1086     Br1087   1.937       .  S
C1091      C1092   1.454       .  A
C1091      C1096   1.418       .  A
C1091     Br1098   1.932       .  S
C1092      C1093   1.466       .  A
C1093      C1094   1.423       .  A
C1093     Br1100   1.946       .  S
C1094      C1095   1.397       .  A
C1094     Br1099   1.939       .  S
C1095      C1096   1.397       .  A
C1096     Br1097   1.933       .  S
C1101      C1102   1.391       .  A
C1101      C1106   1.420       .  A
C1101     Br1108   1.938   1_455  S
C1102      C1103   1.388       .  A
C1103      C1104   1.401       .  A
C1103     Br1110   1.939       .  S
C1104      C1105   1.439       .  A
C1104     Br1109   1.919       .  S
C1105      C1106   1.469       .  A
C1106     Br1107   1.954       .  S
C1111      C1112   1.465       .  A
C1111      C1116   1.423       .  A
C1111     Br1118   1.948       .  S
C1112      C1113   1.454       .  A
C1113      C1114   1.414       .  A
C1113     Br1120   1.935       .  S
C1114      C1115   1.391       .  A
C1114     Br1119   1.930       .  S
C1115      C1116   1.399       .  A
C1116     Br1117   1.943       .  S
C1121      C1122   1.454       .  A
C1121      C1126   1.392       .  A
C1121     Br1128   1.927       .  S
C1122      C1123   1.451       .  A
C1123      C1124   1.424       .  A
C1123     Br1130   1.927       .  S
C1124      C1125   1.403       .  A
C1124     Br1129   1.930       .  S
C1125      C1126   1.387       .  A
C1126     Br1127   1.940       .  S
C1131      C1132   1.399       .  A
C1131      C1136   1.408       .  A
C1131     Br1138   1.934       .  S
C1132      C1133   1.393       .  A
C1133      C1134   1.416       .  A
C1133     Br1140   1.939       .  S
C1134      C1135   1.465       .  A
C1134     Br1139   1.938       .  S
C1135      C1136   1.445       .  A
C1136     Br1137   1.928       .  S
C1141      C1142   1.456       .  A
C1141      C1146   1.408       .  A
C1141     Br1148   1.937       .  S
C1142      C1143   1.451       .  A
C1143      C1144   1.421       .  A
C1143     Br1150   1.939       .  S
C1144      C1145   1.403       .  A
C1144     Br1149   1.937       .  S
C1145      C1146   1.397       .  A
C1146     Br1147   1.940       .  S
C1151      C1152   1.451       .  A
C1151      C1156   1.415       .  A
C1151     Br1158   1.946       .  S
C1152      C1153   1.446       .  A
C1153      C1154   1.418       .  A
C1153     Br1160   1.931       .  S
C1154      C1155   1.414       .  A
C1154     Br1159   1.938       .  S
C1155      C1156   1.406       .  A
C1156     Br1157   1.927       .  S
C1161      C1162   1.440       .  A
C1161      C1166   1.411       .  A
C1161     Br1168   1.927       .  S
C1162      C1163   1.461       .  A
C1163      C1164   1.419       .  A
C1163     Br1170   1.941       .  S
C1164      C1165   1.405       .  A
C1164     Br1169   1.931       .  S
C1165      C1166   1.412       .  A
C1166     Br1167   1.930       .  S
C1171      C1172   1.397       .  A
C1171      C1176   1.415       .  A
C1171     Br1178   1.928       .  S
C1172      C1173   1.407       .  A
C1173      C1174   1.433       .  A
C1173     Br1180   1.933       .  S
C1174      C1175   1.452       .  A
C1174     Br1179   1.923       .  S
C1175      C1176   1.454       .  A
C1176     Br1177   1.945       .  S
C1181      C1182   1.455       .  A
C1181      C1186   1.412       .  A
C1181     Br1188   1.951       .  S
C1182      C1183   1.452   1_655  A
C1183      C1184   1.417       .  A
C1183     Br1190   1.936       .  S
C1184      C1185   1.406   1_455  A
C1184     Br1189   1.934       .  S
C1185      C1186   1.405       .  A
C1186     Br1187   1.940       .  S
C1191      C1192   1.452       .  A
C1191      C1196   1.406       .  A
C1191     Br1198   1.929       .  S
C1192      C1193   1.459       .  A
C1193      C1194   1.421       .  A
C1193     Br1200   1.941       .  S
C1194      C1195   1.397       .  A
C1194     Br1199   1.935   1_545  S
C1195      C1196   1.394       .  A
C1196     Br1197   1.942       .  S
C1201      C1202   1.386       .  A
C1201      C1206   1.392       .  A
C1201     Br1208   1.941   1_545  S
C1202      C1203   1.397       .  A
C1203      C1204   1.416       .  A
C1203     Br1210   1.936       .  S
C1204      C1205   1.458       .  A
C1204     Br1209   1.934       .  S
C1205      C1206   1.450       .  A
C1206     Br1207   1.926       .  S
C1211      C1212   1.400   1_565  A
C1211      C1216   1.404       .  A
C1211     Br1218   1.941       .  S
C1212      C1213   1.408       .  A
C1213      C1214   1.420       .  A
C1213     Br1220   1.937       .  S
C1214      C1215   1.448       .  A
C1214     Br1219   1.934       .  S
C1215      C1216   1.450   1_545  A
C1216     Br1217   1.947       .  S
C1221      C1222   1.460       .  A
C1221      C1226   1.427       .  A
C1221     Br1228   1.938       .  S
C1222      C1223   1.453       .  A
C1223      C1224   1.411       .  A
C1223     Br1230   1.928       .  S
C1224      C1225   1.393       .  A
C1224     Br1229   1.942       .  S
C1225      C1226   1.400       .  A
C1226     Br1227   1.939       .  S
C1231      C1232   1.454       .  A
C1231      C1236   1.423       .  A
C1231     Br1238   1.920       .  S
C1232      C1233   1.456   1_556  A
C1233      C1234   1.403       .  A
C1233     Br1240   1.943       .  S
C1234      C1235   1.391   1_554  A
C1234     Br1239   1.935       .  S
C1235      C1236   1.399       .  A
C1236     Br1237   1.930       .  S
C1241      C1242   1.393       .  A
C1241      C1246   1.414       .  A
C1241     Br1248   1.934       .  S
C1242      C1243   1.399       .  A
C1243      C1244   1.416       .  A
C1243     Br1250   1.943       .  S
C1244      C1245   1.454       .  A
C1244     Br1249   1.924       .  S
C1245      C1246   1.461       .  A
C1246     Br1247   1.942       .  S
C1251      C1252   1.385       .  A
C1251      C1256   1.407       .  A
C1251     Br1258   1.935       .  S
C1252      C1253   1.399       .  A
C1253      C1254   1.433       .  A
C1253     Br1260   1.941       .  S
C1254      C1255   1.467       .  A
C1254     Br1259   1.931       .  S
C1255      C1256   1.455       .  A
C1256     Br1257   1.924       .  S
C1261      C1262   1.389       .  A
C1261      C1266   1.408       .  A
C1261     Br1268   1.942       .  S
C1262      C1263   1.400       .  A
C1263      C1264   1.416       .  A
C1263     Br1270   1.940       .  S
C1264      C1265   1.453       .  A
C1264     Br1269   1.942       .  S
C1265      C1266   1.457       .  A
C1266     Br1267   1.934       .  S
C1271      C1272   1.387       .  A
C1271      C1276   1.390       .  A
C1271     Br1278   1.937       .  S
C1272      C1273   1.394       .  A
C1273      C1274   1.413       .  A
C1273     Br1280   1.934       .  S
C1274      C1275   1.448       .  A
C1274     Br1279   1.929       .  S
C1275      C1276   1.449       .  A
C1276     Br1277   1.946       .  S
C1281      C1282   1.400       .  A
C1281      C1286   1.418       .  A
C1281     Br1288   1.939       .  S
C1282      C1283   1.399       .  A
C1283      C1284   1.418       .  A
C1283     Br1290   1.942       .  S
C1284      C1285   1.461       .  A
C1284     Br1289   1.938       .  S
C1285      C1286   1.457       .  A
C1286     Br1287   1.942   1_554  S
C1291      C1292   1.454       .  A
C1291      C1296   1.408       .  A
C1291     Br1298   1.947       .  S
C1292      C1293   1.438   1_455  A
C1293      C1294   1.413       .  A
C1293     Br1300   1.953       .  S
C1294      C1295   1.427   1_655  A
C1294     Br1299   1.936       .  S
C1295      C1296   1.402       .  A
C1296     Br1297   1.935       .  S
C1301      C1302   1.453       .  A
C1301      C1306   1.414       .  A
C1301     Br1308   1.956       .  S
C1302      C1303   1.455       .  A
C1303      C1304   1.419       .  A
C1303     Br1310   1.947       .  S
C1304      C1305   1.412       .  A
C1304     Br1309   1.944       .  S
C1305      C1306   1.415       .  A
C1306     Br1307   1.945   1_455  S
C1311      C1312   1.386       .  A
C1311      C1316   1.395       .  A
C1311     Br1318   1.950       .  S
C1312      C1313   1.388       .  A
C1313      C1314   1.410       .  A
C1313     Br1320   1.944       .  S
C1314      C1315   1.458       .  A
C1314     Br1319   1.933       .  S
C1315      C1316   1.452       .  A
C1316     Br1317   1.932       .  S
C1321      C1322   1.452       .  A
C1321      C1326   1.407       .  A
C1321     Br1328   1.932       .  S
C1322      C1323   1.453       .  A
C1323      C1324   1.392       .  A
C1323     Br1330   1.957       .  S
C1324      C1325   1.392       .  A
C1324     Br1329   1.932   1_545  S
C1325      C1326   1.397       .  A
C1326     Br1327   1.939       .  S
C1331      C1332   1.449   1_565  A
C1331      C1336   1.403       .  A
C1331     Br1338   1.936       .  S
C1332      C1333   1.449       .  A
C1333      C1334   1.391       .  A
C1333     Br1340   1.958       .  S
C1334      C1335   1.390       .  A
C1334     Br1339   1.935       .  S
C1335      C1336   1.390   1_545  A
C1336     Br1337   1.936       .  S
C1341      C1342   1.462       .  A
C1341      C1346   1.411       .  A
C1341     Br1348   1.940   1_545  S
C1342      C1343   1.443       .  A
C1343      C1344   1.386       .  A
C1343     Br1350   1.927       .  S
C1344      C1345   1.379       .  A
C1344     Br1349   1.926       .  S
C1345      C1346   1.391       .  A
C1346     Br1347   1.943       .  S
C1351      C1352   1.401       .  A
C1351      C1356   1.418       .  A
C1351     Br1358   1.932       .  S
C1352      C1353   1.386       .  A
C1353      C1354   1.398       .  A
C1353     Br1360   1.921       .  S
C1354      C1355   1.441       .  A
C1354     Br1359   1.924       .  S
C1355      C1356   1.459       .  A
C1356     Br1357   1.935       .  S
C1361      C1362   1.405       .  A
C1361      C1366   1.425       .  A
C1361     Br1368   1.931       .  S
C1362      C1363   1.390       .  A
C1363      C1364   1.401       .  A
C1363     Br1370   1.938       .  S
C1364      C1365   1.454       .  A
C1364     Br1369   1.948       .  S
C1365      C1366   1.450       .  A
C1366     Br1367   1.931       .  S
C1371      C1372   1.459       .  A
C1371      C1376   1.423       .  A
C1371     Br1378   1.948       .  S
C1372      C1373   1.453       .  A
C1373      C1374   1.424       .  A
C1373     Br1380   1.939       .  S
C1374      C1375   1.409       .  A
C1374     Br1379   1.942       .  S
C1375      C1376   1.404       .  A
C1376     Br1377   1.940       .  S
C1381      C1382   1.400       .  A
C1381      C1386   1.428       .  A
C1381     Br1388   1.934       .  S
C1382      C1383   1.404   1_455  A
C1383      C1384   1.421       .  A
C1383     Br1390   1.942       .  S
C1384      C1385   1.457   1_655  A
C1384     Br1389   1.936       .  S
C1385      C1386   1.456       .  A
C1386     Br1387   1.925       .  S
C1391      C1392   1.457       .  A
C1391      C1396   1.418       .  A
C1391     Br1398   1.938       .  S
C1392      C1393   1.454       .  A
C1393      C1394   1.409       .  A
C1393     Br1400   1.948       .  S
C1394      C1395   1.398       .  A
C1394     Br1399   1.939       .  S
C1395      C1396   1.394       .  A
C1396     Br1397   1.921       .  S
C1401      C1402   1.451       .  A
C1401      C1406   1.429       .  A
C1401     Br1408   1.934       .  S
C1402      C1403   1.464       .  A
C1403      C1404   1.421       .  A
C1403     Br1410   1.959       .  S
C1404      C1405   1.408       .  A
C1404     Br1409   1.951       .  S
C1405      C1406   1.404       .  A
C1406     Br1407   1.934       .  S
C1411      C1412   1.436       .  A
C1411      C1416   1.418       .  A
C1411     Br1418   1.924       .  S
C1412      C1413   1.474       .  A
C1413      C1414   1.437       .  A
C1413     Br1420   1.944       .  S
C1414      C1415   1.404       .  A
C1414     Br1419   1.942       .  S
C1415      C1416   1.415       .  A
C1416     Br1417   1.943       .  S
C1421      C1422   1.400       .  A
C1421      C1426   1.427       .  A
C1421     Br1428   1.934       .  S
C1422      C1423   1.401       .  A
C1423      C1424   1.418       .  A
C1423     Br1430   1.951       .  S
C1424      C1425   1.463       .  A
C1424     Br1429   1.952       .  S
C1425      C1426   1.457       .  A
C1426     Br1427   1.937       .  S
C1431      C1432   1.460       .  A
C1431      C1436   1.429       .  A
C1431     Br1438   1.938       .  S
C1432      C1433   1.460       .  A
C1433      C1434   1.413       .  A
C1433     Br1440   1.938       .  S
C1434      C1435   1.389       .  A
C1434     Br1439   1.925       .  S
C1435      C1436   1.407       .  A
C1436     Br1437   1.939       .  S
C1441      C1442   1.393       .  A
C1441      C1446   1.416       .  A
C1441     Br1448   1.939       .  S
C1442      C1443   1.401       .  A
C1443      C1444   1.410       .  A
C1443     Br1450   1.939       .  S
C1444      C1445   1.452       .  A
C1444     Br1449   1.948       .  S
C1445      C1446   1.460       .  A
C1446     Br1447   1.936       .  S
C1451      C1452   1.465       .  A
C1451      C1456   1.434       .  A
C1451     Br1458   1.951       .  S
C1452      C1453   1.460       .  A
C1453      C1454   1.439       .  A
C1453     Br1460   1.925       .  S
C1454      C1455   1.405       .  A
C1454     Br1459   1.936       .  S
C1455      C1456   1.410       .  A
C1456     Br1457   1.949       .  S
C1461      C1462   1.463       .  A
C1461      C1466   1.422       .  A
C1461     Br1468   1.944       .  S
C1462      C1463   1.472   1_556  A
C1463      C1464   1.434       .  A
C1463     Br1470   1.921       .  S
C1464      C1465   1.389   1_554  A
C1464     Br1469   1.933   1_565  S
C1465      C1466   1.396       .  A
C1466     Br1467   1.940       .  S
C1471      C1472   1.461       .  A
C1471      C1476   1.423       .  A
C1471     Br1478   1.923       .  S
C1472      C1473   1.465   1_556  A
C1473      C1474   1.421       .  A
C1473     Br1480   1.949       .  S
C1474      C1475   1.399   1_554  A
C1474     Br1479   1.947       .  S
C1475      C1476   1.392       .  A
C1476     Br1477   1.933   1_565  S
C1481      C1482   1.404       .  A
C1481      C1486   1.428       .  A
C1481     Br1488   1.921       .  S
C1482      C1483   1.398       .  A
C1483      C1484   1.429       .  A
C1483     Br1490   1.938       .  S
C1484      C1485   1.460       .  A
C1484     Br1489   1.919   1_554  S
C1485      C1486   1.457       .  A
C1486     Br1487   1.942       .  S
C1491      C1492   1.409       .  A
C1491      C1496   1.403       .  A
C1491     Br1498   1.941       .  S
C1492      C1493   1.398       .  A
C1493      C1494   1.403       .  A
C1493     Br1500   1.938       .  S
C1494      C1495   1.456       .  A
C1494     Br1499   1.947   1_565  S
C1495      C1496   1.445       .  A
C1496     Br1497   1.944       .  S
C1501      C1502   1.451       .  A
C1501      C1506   1.383       .  A
C1501     Br1508   1.947       .  S
C1502      C1503   1.463       .  A
C1503      C1504   1.431       .  A
C1503     Br1510   1.929       .  S
C1504      C1505   1.393       .  A
C1504     Br1509   1.923       .  S
C1505      C1506   1.389       .  A
C1506     Br1507   1.929       .  S
C1511      C1512   1.449       .  A
C1511      C1516   1.437       .  A
C1511     Br1518   1.921       .  S
C1512      C1513   1.444       .  A
C1513      C1514   1.413       .  A
C1513     Br1520   1.936       .  S
C1514      C1515   1.408       .  A
C1514     Br1519   1.939       .  S
C1515      C1516   1.410       .  A
C1516     Br1517   1.930       .  S
C1521      C1522   1.447       .  A
C1521      C1526   1.416       .  A
C1521     Br1528   1.937       .  S
C1522      C1523   1.449   1_655  A
C1523      C1524   1.419       .  A
C1523     Br1530   1.926       .  S
C1524      C1525   1.416   1_455  A
C1524     Br1529   1.946       .  S
C1525      C1526   1.417       .  A
C1526     Br1527   1.938       .  S
C1531      C1532   1.451       .  A
C1531      C1536   1.423       .  A
C1531     Br1538   1.923       .  S
C1532      C1533   1.453   1_655  A
C1533      C1534   1.403       .  A
C1533     Br1540   1.937       .  S
C1534      C1535   1.398   1_455  A
C1534     Br1539   1.939       .  S
C1535      C1536   1.401       .  A
C1536     Br1537   1.933       .  S
C1541      C1542   1.466       .  A
C1541      C1546   1.435       .  A
C1541     Br1548   1.952       .  S
C1542      C1543   1.449       .  A
C1543      C1544   1.411       .  A
C1543     Br1550   1.925       .  S
C1544      C1545   1.400       .  A
C1544     Br1549   1.949       .  S
C1545      C1546   1.407       .  A
C1546     Br1547   1.936       .  S
C1551      C1552   1.469       .  A
C1551      C1556   1.427       .  A
C1551     Br1558   1.943       .  S
C1552      C1553   1.454       .  A
C1553      C1554   1.412       .  A
C1553     Br1560   1.924       .  S
C1554      C1555   1.398       .  A
C1554     Br1559   1.945       .  S
C1555      C1556   1.397       .  A
C1556     Br1557   1.934       .  S
C1561      C1562   1.456       .  A
C1561      C1566   1.394       .  A
C1561     Br1568   1.954       .  S
C1562      C1563   1.459       .  A
C1563      C1564   1.443       .  A
C1563     Br1570   1.925       .  S
C1564      C1565   1.404       .  A
C1564     Br1569   1.926       .  S
C1565      C1566   1.402       .  A
C1566     Br1567   1.944       .  S
C1571      C1572   1.455       .  A
C1571      C1576   1.417       .  A
C1571     Br1578   1.918       .  S
C1572      C1573   1.461       .  A
C1573      C1574   1.431       .  A
C1573     Br1580   1.944       .  S
C1574      C1575   1.410       .  A
C1574     Br1579   1.937       .  S
C1575      C1576   1.397       .  A
C1576     Br1577   1.945       .  S
C1581      C1582   1.429       .  A
C1581      C1586   1.405       .  A
C1581     Br1588   1.927       .  S
C1582      C1583   1.437       .  A
C1583      C1584   1.405       .  A
C1583     Br1590   1.935       .  S
C1584      C1585   1.407       .  A
C1584     Br1589   1.935       .  S
C1585      C1586   1.404       .  A
C1586     Br1587   1.934       .  S
C1591      C1592   1.450       .  A
C1591      C1596   1.408       .  A
C1591     Br1598   1.922       .  S
C1592      C1593   1.450       .  A
C1593      C1594   1.413       .  A
C1593     Br1600   1.940       .  S
C1594      C1595   1.402       .  A
C1594     Br1599   1.940       .  S
C1595      C1596   1.398       .  A
C1596     Br1597   1.950       .  S
C1601      C1602   1.440       .  A
C1601      C1606   1.388       .  A
C1601     Br1608   1.944       .  S
C1602      C1603   1.450       .  A
C1603      C1604   1.411       .  A
C1603     Br1610   1.957       .  S
C1604      C1605   1.411       .  A
C1604     Br1609   1.938       .  S
C1605      C1606   1.397       .  A
C1606     Br1607   1.939       .  S
C1611      C1612   1.403       .  A
C1611      C1616   1.416       .  A
C1611     Br1618   1.934       .  S
C1612      C1613   1.403       .  A
C1613      C1614   1.416       .  A
C1613     Br1620   1.933       .  S
C1614      C1615   1.436       .  A
C1614     Br1619   1.925       .  S
C1615      C1616   1.434       .  A
C1616     Br1617   1.914       .  S
C1621      C1622   1.400       .  A
C1621      C1626   1.422       .  A
C1621     Br1628   1.928       .  S
C1622      C1623   1.399       .  A
C1623      C1624   1.420       .  A
C1623     Br1630   1.946       .  S
C1624      C1625   1.452       .  A
C1624     Br1629   1.926       .  S
C1625      C1626   1.444       .  A
C1626     Br1627   1.925       .  S
C1631      C1632   1.410       .  A
C1631      C1636   1.398       .  A
C1631     Br1638   1.922       .  S
C1632      C1633   1.423       .  A
C1633      C1634   1.429       .  A
C1633     Br1640   1.928       .  S
C1634      C1635   1.433       .  A
C1634     Br1639   1.934       .  S
C1635      C1636   1.425       .  A
C1636     Br1637   1.926       .  S
C1641      C1642   1.447       .  A
C1641      C1646   1.423       .  A
C1641     Br1648   1.943       .  S
C1642      C1643   1.462       .  A
C1643      C1644   1.413       .  A
C1643     Br1650   1.943       .  S
C1644      C1645   1.390       .  A
C1644     Br1649   1.936       .  S
C1645      C1646   1.405       .  A
C1646     Br1647   1.932       .  S
C1651      C1652   1.472       .  A
C1651      C1656   1.421       .  A
C1651     Br1658   1.943       .  S
C1652      C1653   1.451       .  A
C1653      C1654   1.420       .  A
C1653     Br1660   1.926       .  S
C1654      C1655   1.394       .  A
C1654     Br1659   1.932       .  S
C1655      C1656   1.392       .  A
C1656     Br1657   1.951       .  S
C1661      C1662   1.436       .  A
C1661      C1666   1.374       .  A
C1661     Br1668   1.938       .  S
C1662      C1663   1.448       .  A
C1663      C1664   1.414       .  A
C1663     Br1670   1.931       .  S
C1664      C1665   1.408       .  A
C1664     Br1669   1.930       .  S
C1665      C1666   1.385       .  A
C1666     Br1667   1.924       .  S
C1671      C1672   1.448       .  A
C1671      C1676   1.404       .  A
C1671     Br1678   1.929       .  S
C1672      C1673   1.461       .  A
C1673      C1674   1.414       .  A
C1673     Br1680   1.935       .  S
C1674      C1675   1.394       .  A
C1674     Br1679   1.946       .  S
C1675      C1676   1.392       .  A
C1676     Br1677   1.937       .  S
C1681      C1682   1.458       .  A
C1681      C1686   1.424       .  A
C1681     Br1688   1.934   1_554  S
C1682      C1683   1.461       .  A
C1683      C1684   1.416       .  A
C1683     Br1690   1.938       .  S
C1684      C1685   1.394       .  A
C1684     Br1689   1.944       .  S
C1685      C1686   1.400       .  A
C1686     Br1687   1.944       .  S
C1691      C1692   1.446   1_554  A
C1691      C1696   1.398       .  A
C1691     Br1698   1.945       .  S
C1692      C1693   1.453       .  A
C1693      C1694   1.416       .  A
C1693     Br1700   1.932       .  S
C1694      C1695   1.399       .  A
C1694     Br1699   1.924       .  S
C1695      C1696   1.394   1_556  A
C1696     Br1697   1.933       .  S
C1701      C1702   1.458       .  A
C1701      C1706   1.423       .  A
C1701     Br1708   1.940       .  S
C1702      C1703   1.449       .  A
C1703      C1704   1.404   1_556  A
C1703     Br1710   1.942       .  S
C1704      C1705   1.401   1_554  A
C1704     Br1709   1.943       .  S
C1705      C1706   1.403       .  A
C1706     Br1707   1.936   1_545  S
C1711      C1712   1.452       .  A
C1711      C1716   1.405       .  A
C1711     Br1718   1.953       .  S
C1712      C1713   1.443       .  A
C1713      C1714   1.398       .  A
C1713     Br1720   1.959       .  S
C1714      C1715   1.405       .  A
C1714     Br1719   1.945       .  S
C1715      C1716   1.391       .  A
C1716     Br1717   1.934       .  S
C1721      C1722   1.411       .  A
C1721      C1726   1.387       .  A
C1721     Br1728   1.928       .  S
C1722      C1723   1.469       .  A
C1723      C1724   1.431       .  A
C1723     Br1730   1.949   1_545  S
C1724      C1725   1.407       .  A
C1724     Br1729   1.940       .  S
C1725      C1726   1.396       .  A
C1726     Br1727   1.921       .  S
C1731      C1732   1.398   1_545  A
C1731      C1736   1.410       .  A
C1731     Br1738   1.933       .  S
C1732      C1733   1.389       .  A
C1733      C1734   1.391       .  A
C1733     Br1740   1.941       .  S
C1734      C1735   1.449       .  A
C1734     Br1739   1.935       .  S
C1735      C1736   1.437   1_565  A
C1736     Br1737   1.933       .  S
C1741      C1742   1.394   1_565  A
C1741      C1746   1.406       .  A
C1741     Br1748   1.937       .  S
C1742      C1743   1.389       .  A
C1743      C1744   1.393       .  A
C1743     Br1750   1.935       .  S
C1744      C1745   1.443   1_545  A
C1744     Br1749   1.937   1_545  S
C1745      C1746   1.446       .  A
C1746     Br1747   1.917       .  S
C1751      C1752   1.438       .  A
C1751      C1756   1.396       .  A
C1751     Br1758   1.937       .  S
C1752      C1753   1.463       .  A
C1753      C1754   1.429       .  A
C1753     Br1760   1.947       .  S
C1754      C1755   1.406       .  A
C1754     Br1759   1.940       .  S
C1755      C1756   1.388       .  A
C1756     Br1757   1.924       .  S
C1761      C1762   1.447       .  A
C1761      C1766   1.402       .  A
C1761     Br1768   1.922       .  S
C1762      C1763   1.446       .  A
C1763      C1764   1.420       .  A
C1763     Br1770   1.940       .  S
C1764      C1765   1.401       .  A
C1764     Br1769   1.931       .  S
C1765      C1766   1.391       .  A
C1766     Br1767   1.940       .  S
C1771      C1772   1.399       .  A
C1771      C1776   1.407       .  A
C1771     Br1778   1.935       .  S
C1772      C1773   1.404       .  A
C1773      C1774   1.436       .  A
C1773     Br1780   1.937       .  S
C1774      C1775   1.460       .  A
C1774     Br1779   1.926       .  S
C1775      C1776   1.444       .  A
C1776     Br1777   1.937       .  S
C1781      C1782   1.394       .  A
C1781      C1786   1.413   1_554  A
C1781     Br1788   1.940       .  S
C1782      C1783   1.398       .  A
C1783      C1784   1.421       .  A
C1783     Br1790   1.939       .  S
C1784      C1785   1.449   1_554  A
C1784     Br1789   1.920       .  S
C1785      C1786   1.450       .  A
C1786     Br1787   1.934       .  S
C1791      C1792   1.446       .  A
C1791      C1796   1.420       .  A
C1791     Br1798   1.948       .  S
C1792      C1793   1.446   1_556  A
C1793      C1794   1.410       .  A
C1793     Br1800   1.929       .  S
C1794      C1795   1.396   1_554  A
C1794     Br1799   1.932       .  S
C1795      C1796   1.413       .  A
C1796     Br1797   1.939       .  S
C1801      C1802   1.393       .  A
C1801      C1806   1.399       .  A
C1801     Br1808   1.932       .  S
C1802      C1803   1.406       .  A
C1803      C1804   1.427       .  A
C1803     Br1810   1.939       .  S
C1804      C1805   1.457       .  A
C1804     Br1809   1.946   1_554  S
C1805      C1806   1.429       .  A
C1806     Br1807   1.936       .  S
C1811      C1812   1.399       .  A
C1811      C1816   1.403       .  A
C1811     Br1818   1.936       .  S
C1812      C1813   1.389       .  A
C1813      C1814   1.404       .  A
C1813     Br1820   1.952       .  S
C1814      C1815   1.459       .  A
C1814     Br1819   1.930       .  S
C1815      C1816   1.445       .  A
C1816     Br1817   1.940       .  S
C1821      C1822   1.447       .  A
C1821      C1826   1.431       .  A
C1821     Br1828   1.946       .  S
C1822      C1823   1.451       .  A
C1823      C1824   1.406       .  A
C1823     Br1830   1.947       .  S
C1824      C1825   1.400       .  A
C1824     Br1829   1.940       .  S
C1825      C1826   1.410       .  A
C1826     Br1827   1.927       .  S
C1831      C1832   1.401       .  A
C1831      C1836   1.413       .  A
C1831     Br1838   1.937       .  S
C1832      C1833   1.400       .  A
C1833      C1834   1.398       .  A
C1833     Br1840   1.930       .  S
C1834      C1835   1.427       .  A
C1834     Br1839   1.940       .  S
C1835      C1836   1.454       .  A
C1836     Br1837   1.955       .  S
C1841      C1842   1.408       .  A
C1841      C1846   1.439       .  A
C1841     Br1848   1.928       .  S
C1842      C1843   1.400       .  A
C1843      C1844   1.421       .  A
C1843     Br1850   1.921       .  S
C1844      C1845   1.452       .  A
C1844     Br1849   1.944       .  S
C1845      C1846   1.447       .  A
C1846     Br1847   1.922       .  S
C1851      C1852   1.452       .  A
C1851      C1856   1.427       .  A
C1851     Br1858   1.941       .  S
C1852      C1853   1.448       .  A
C1853      C1854   1.408       .  A
C1853     Br1860   1.928       .  S
C1854      C1855   1.394       .  A
C1854     Br1859   1.943       .  S
C1855      C1856   1.403       .  A
C1856     Br1857   1.933       .  S
C1861      C1862   1.457       .  A
C1861      C1866   1.446       .  A
C1861     Br1868   1.940       .  S
C1862      C1863   1.444       .  A
C1863      C1864   1.421       .  A
C1863     Br1870   1.936       .  S
C1864      C1865   1.409       .  A
C1864     Br1869   1.928       .  S
C1865      C1866   1.415       .  A
C1866     Br1867   1.928   1_565  S
C1871      C1872   1.425       .  A
C1871      C1876   1.414       .  A
C1871     Br1878   1.934       .  S
C1872      C1873   1.450       .  A
C1873      C1874   1.427       .  A
C1873     Br1880   1.944       .  S
C1874      C1875   1.405       .  A
C1874     Br1879   1.938       .  S
C1875      C1876   1.408       .  A
C1876     Br1877   1.929       .  S
C1881      C1882   1.456       .  A
C1881      C1886   1.412       .  A
C1881     Br1888   1.941       .  S
C1882      C1883   1.455       .  A
C1883      C1884   1.399       .  A
C1883     Br1890   1.923       .  S
C1884      C1885   1.388       .  A
C1884     Br1889   1.940       .  S
C1885      C1886   1.399       .  A
C1886     Br1887   1.934   1_655  S
C1891      C1892   1.450       .  A
C1891      C1896   1.419       .  A
C1891     Br1898   1.929       .  S
C1892      C1893   1.465       .  A
C1893      C1894   1.414       .  A
C1893     Br1900   1.957       .  S
C1894      C1895   1.397       .  A
C1894     Br1899   1.950       .  S
C1895      C1896   1.395       .  A
C1896     Br1897   1.938       .  S
C1901      C1902   1.406       .  A
C1901      C1906   1.408       .  A
C1901     Br1908   1.943       .  S
C1902      C1903   1.404       .  A
C1903      C1904   1.413       .  A
C1903     Br1910   1.944       .  S
C1904      C1905   1.457       .  A
C1904     Br1909   1.949       .  S
C1905      C1906   1.448       .  A
C1906     Br1907   1.938       .  S
C1911      C1912   1.398       .  A
C1911      C1916   1.419       .  A
C1911     Br1918   1.931       .  S
C1912      C1913   1.394       .  A
C1913      C1914   1.388       .  A
C1913     Br1920   1.934       .  S
C1914      C1915   1.446       .  A
C1914     Br1919   1.941       .  S
C1915      C1916   1.463       .  A
C1916     Br1917   1.939       .  S
C1921      C1922   1.408       .  A
C1921      C1926   1.414       .  A
C1921     Br1928   1.928       .  S
C1922      C1923   1.412       .  A
C1923      C1924   1.420       .  A
C1923     Br1930   1.932       .  S
C1924      C1925   1.421       .  A
C1924     Br1929   1.922       .  S
C1925      C1926   1.420       .  A
C1926     Br1927   1.926       .  S
C1931      C1932   1.396       .  A
C1931      C1936   1.407       .  A
C1931     Br1938   1.938       .  S
C1932      C1933   1.395       .  A
C1933      C1934   1.415       .  A
C1933     Br1940   1.931       .  S
C1934      C1935   1.460       .  A
C1934     Br1939   1.942   1_655  S
C1935      C1936   1.452       .  A
C1936     Br1937   1.929       .  S
C1941      C1942   1.416       .  A
C1941      C1946   1.432       .  A
C1941     Br1948   1.934       .  S
C1942      C1943   1.410       .  A
C1943      C1944   1.394       .  A
C1943     Br1950   1.939       .  S
C1944      C1945   1.444       .  A
C1944     Br1949   1.949       .  S
C1945      C1946   1.454       .  A
C1946     Br1947   1.939       .  S
C1951      C1952   1.424       .  A
C1951      C1956   1.376       .  A
C1951     Br1958   1.932       .  S
C1952      C1953   1.435   1_565  A
C1953      C1954   1.431       .  A
C1953     Br1960   1.928   1_545  S
C1954      C1955   1.430       .  A
C1954     Br1959   1.937       .  S
C1955      C1956   1.414   1_545  A
C1956     Br1957   1.935       .  S
C1961      C1962   1.432       .  A
C1961      C1966   1.413       .  A
C1961     Br1968   1.929       .  S
C1962      C1963   1.461   1_545  A
C1963      C1964   1.409       .  A
C1963     Br1970   1.945       .  S
C1964      C1965   1.393   1_565  A
C1964     Br1969   1.941       .  S
C1965      C1966   1.398       .  A
C1966     Br1967   1.931       .  S
C1971      C1972   1.444       .  A
C1971      C1976   1.422       .  A
C1971     Br1978   1.913       .  S
C1972      C1973   1.434       .  A
C1973      C1974   1.398       .  A
C1973     Br1980   1.928   1_545  S
C1974      C1975   1.407       .  A
C1974     Br1979   1.928       .  S
C1975      C1976   1.414       .  A
C1976     Br1977   1.943       .  S
C1981      C1982   1.405       .  A
C1981      C1986   1.405       .  A
C1981     Br1988   1.942       .  S
C1982      C1983   1.401       .  A
C1983      C1984   1.420       .  A
C1983     Br1990   1.952       .  S
C1984      C1985   1.460       .  A
C1984     Br1989   1.931       .  S
C1985      C1986   1.439       .  A
C1986     Br1987   1.927       .  S
C1991      C1992   1.399       .  A
C1991      C1996   1.420       .  A
C1991     Br1998   1.940       .  S
C1992      C1993   1.406       .  A
C1993      C1994   1.425       .  A
C1993     Br2000   1.932       .  S
C1994      C1995   1.445       .  A
C1994     Br1999   1.935       .  S
C1995      C1996   1.454       .  A
C1996     Br1997   1.938       .  S
C2001      C2002   1.400       .  A
C2001      C2006   1.431       .  A
C2001     Br2008   1.940       .  S
C2002      C2003   1.394       .  A
C2003      C2004   1.417       .  A
C2003     Br2010   1.931       .  S
C2004      C2005   1.452       .  A
C2004     Br2009   1.930       .  S
C2005      C2006   1.463       .  A
C2006     Br2007   1.935       .  S
C2011      C2012   1.398       .  A
C2011      C2016   1.409       .  A
C2011     Br2018   1.935       .  S
C2012      C2013   1.403       .  A
C2013      C2014   1.401       .  A
C2013     Br2020   1.938       .  S
C2014      C2015   1.443       .  A
C2014     Br2019   1.942       .  S
C2015      C2016   1.445       .  A
C2016     Br2017   1.944       .  S
C2021      C2022   1.405       .  A
C2021      C2026   1.408       .  A
C2021     Br2028   1.931       .  S
C2022      C2023   1.415       .  A
C2023      C2024   1.439       .  A
C2023     Br2030   1.925       .  S
C2024      C2025   1.455       .  A
C2024     Br2029   1.942       .  S
C2025      C2026   1.439       .  A
C2026     Br2027   1.936       .  S
C2031      C2032   1.411       .  A
C2031      C2036   1.415       .  A
C2031     Br2038   1.948       .  S
C2032      C2033   1.414       .  A
C2033      C2034   1.433       .  A
C2033     Br2040   1.940       .  S
C2034      C2035   1.458       .  A
C2034     Br2039   1.947       .  S
C2035      C2036   1.452       .  A
C2036     Br2037   1.938       .  S
