geometry optimzed in LAMMPS
_audit_creation_date              2020-11-30 
_audit_creation_method            'lammps2cif' 
_symmetry_space_group_name_H-M    'P1' 
_symmetry_Int_Tables_number       1 
_symmetry_cell_setting            triclinic 
loop_ 
_symmetry_equiv_pos_as_xyz 
  x,y,z 
_cell_length_a                    36.32049629 
_cell_length_b                    36.32605640315073 
_cell_length_c                    36.295508534211045 
_cell_angle_alpha                 89.76433561462495 
_cell_angle_beta                  89.87312916434377 
_cell_angle_gamma                 90.27279526748616 
loop_ 
_atom_site_label 
_atom_site_type_symbol 
_atom_site_fract_x 
_atom_site_fract_y 
_atom_site_fract_z 
_atom_site_charge 
C1          C  0.02346993  0.00343876  0.96701211     0.03200
C2          C  0.99571738  0.03022477  0.97276810     0.03200
C3          C  0.96852080  0.02427488  0.00038602     0.03200
C4          C  0.97367049  0.99564211  0.02671825     0.03200
C5          C  0.00198662  0.96919644  0.02116968     0.03200
C6          C  0.02871622  0.97510595  0.99332961     0.03200
C7          C  0.00793120  0.13228902  0.94217396     0.43400
N8          N  0.00489559  0.19036912  0.92813260     0.02300
C9          C  0.92241851  0.25938953  0.77039965    -0.05600
H10         H  0.04585976  0.18943041  0.74672094     0.07800
C11         C  0.11100427  0.28124193  0.82388419    -0.06000
Co12       Co  0.96061071  0.19806126  0.85913236     0.74200
N13         N  0.01054472  0.19810281  0.79360951    -0.25100
Co14       Co  0.00395473  0.25370698  0.79537613     0.74100
C15         C  0.11837249  0.25989357  0.79081944     0.43500
N16         N  0.07088189  0.28123460  0.90885201     0.01900
N17         N  0.06032751  0.26191038  0.79933560     0.02000
N18         N  0.89411279  0.22520433  0.81460258    -0.46000
H19         H  0.97958730  0.11576198  0.88827752     0.07700
N20         N  0.99420233  0.17595381  0.81736431     0.02300
N21         N  0.99655719  0.30902859  0.79739394     0.02000
C22         C  0.97486618  0.36192828  0.78636450     0.43600
N23         N  0.05446376  0.25945223  0.93317728    -0.24600
C24         C  0.89431834  0.21007510  0.91140748    -0.05500
N25         N  0.01477438  0.16700685  0.95477351    -0.45700
N26         N  0.97529893  0.32726417  0.77440998    -0.45900
C27         C  0.88954631  0.22598541  0.94783850     0.43400
N28         N  0.93033826  0.22554284  0.81890334     0.02300
N29         N  0.99263958  0.30806933  0.93239106    -0.24600
N30         N  0.99090152  0.17250943  0.89966825    -0.25100
N31         N  0.00823925  0.32868678  0.90650665     0.01900
H32         H  0.96884031  0.32265719  0.98511115     0.07800
H33         H  0.00170439  0.38657736  0.83829999     0.07800
N34         N  0.94737267  0.24568658  0.79373588    -0.25200
N35         N  0.07429275  0.28105911  0.82682130    -0.24800
N36         N  0.94300704  0.23987735  0.92814160     0.02300
C37         C  0.02342125  0.14074966  0.78020797     0.43700
C38         C  0.07611501  0.25571742  0.96267770    -0.06000
N39         N  0.00961332  0.32931290  0.82442968    -0.24800
H40         H  0.12990186  0.29493459  0.84236713     0.07800
N41         N  0.00199900  0.14092023  0.81085271    -0.46000
H42         H  0.06800578  0.24353615  0.98873125     0.07800
C43         C  0.99053436  0.36864579  0.94635158     0.43500
C44         C  0.99234969  0.13627018  0.90562639    -0.05500
Co45       Co  0.99870476  0.24921629  0.93089455     0.73800
N46         N  0.10300598  0.29356060  0.92072872    -0.45700
C47         C  0.88738739  0.24628566  0.78464035     0.43800
N48         N  0.92084520  0.24341630  0.95675691    -0.45700
Co49       Co  0.04111517  0.30549773  0.86632526     0.73900
C50         C  0.99708325  0.36371629  0.81985897    -0.06000
C51         C  0.02967074  0.17848850  0.76930259    -0.05600
N52         N  0.92850524  0.21985903  0.90145085    -0.25100
N53         N  0.08582800  0.24900232  0.77680353    -0.45900
H54         H  0.92802007  0.27712993  0.74703243     0.07800
C55         C  0.98031695  0.33112832  0.95888507    -0.06000
Cl56       Cl  0.00112657  0.25155210  0.86319054    -0.49000
C57         C  0.10808031  0.27811551  0.95407003     0.43500
H58         H  0.87702008  0.19047309  0.89714044     0.07700
N59         N  0.00795063  0.36436821  0.91394862    -0.45700
C60         C  0.79709195  0.02662151  0.13457042     0.43400
N61         N  0.81477693  0.01094012  0.18900180     0.02300
C62         C  0.97227422  0.07264124  0.27582172    -0.05600
H63         H  0.99488878  0.97312910  0.17190730     0.07800
C64         C  0.92952085  0.88893461  0.25167729    -0.06000
Co65       Co  0.88421909  0.05231374  0.20575472     0.74200
N66         N  0.94930316  0.00534878  0.19216100    -0.25100
Co67       Co  0.94867965  0.99923260  0.24952261     0.74100
C68         C  0.96268738  0.89147768  0.22889466     0.43500
N69         N  0.83986574  0.92405231  0.25706345     0.01900
N70         N  0.94741058  0.94478872  0.24407821     0.02000
N71         N  0.93063434  0.11029881  0.24846445    -0.46000
H72         H  0.85193361  0.05574257  0.12300967     0.07700
N73         N  0.92394804  0.02494006  0.17525341     0.02300
N74         N  0.94634992  0.99289119  0.30700022     0.02000
C75         C  0.95695373  0.99647760  0.36510708     0.43600
N76         N  0.81392909  0.94341372  0.24030509    -0.24600
C77         C  0.83826403  0.11441324  0.23906720    -0.05500
N78         N  0.78605587  0.01049462  0.16643819    -0.45700
N79         N  0.96982897  0.00627791  0.33153615    -0.45900
C80         C  0.80327789  0.11797314  0.25815495     0.43400
N81         N  0.92537456  0.07549050  0.23896141     0.02300
N82         N  0.81155005  0.99260354  0.30202977    -0.24600
N83         N  0.84315621  0.02847260  0.17443377    -0.25100
N84         N  0.83696862  0.97290834  0.31897940     0.01900
H85         H  0.75674888  0.00918505  0.31764199     0.07800
H86         H  0.90557232  0.96138451  0.37904065     0.07800
N87         N  0.94931158  0.05368213  0.25496987    -0.25200
N88         N  0.92186778  0.92406080  0.25957191    -0.24800
N89         N  0.81577531  0.06022327  0.25153166     0.02300
C90         C  0.95631346  0.00258707  0.13145719     0.43700
C91         C  0.78955096  0.91931693  0.22585582    -0.06000
N92         N  0.91913580  0.97421557  0.32244802    -0.24800
H93         H  0.91380098  0.86504716  0.26032101     0.07800
N94         N  0.92700761  0.02406773  0.13880226    -0.46000
H95         H  0.76401232  0.92652411  0.21241135     0.07800
C96         C  0.79378283  0.97829254  0.35839796     0.43500
C97         C  0.83546954  0.03719443  0.13975427    -0.05500
Co98       Co  0.81315830  0.00183215  0.24569142     0.73800
N99         N  0.83438446  0.88812118  0.25548946    -0.45700
C100        C  0.95969128  0.10945571  0.27179252     0.43800
N101        N  0.79065570  0.08322987  0.26497343    -0.45700
Co102      Co  0.87950295  0.94833235  0.28999557     0.73900
C103        C  0.92335907  0.97493166  0.35918890    -0.06000
C104        C  0.97156494  0.99072387  0.16663373    -0.05600
N105        N  0.84353100  0.07820245  0.23599459    -0.25100
N106        N  0.97232533  0.92657520  0.22544474    -0.45900
H107        H  0.99459280  0.06166768  0.29209503     0.07800
C108        C  0.78301756  0.99736370  0.32493504    -0.06000
Cl109      Cl  0.88113275  0.00045849  0.24781729    -0.49000
C110        C  0.80338963  0.88262872  0.23612723     0.43500
H111        H  0.85583408  0.13543486  0.22718371     0.07700
N112        N  0.82711398  0.96340392  0.35275908    -0.45700
C113        C  0.00735920  0.03000221  0.47497851     0.03200
C114        C  0.98029894  0.00261732  0.46886981     0.03200
C115        C  0.97511020  0.97444288  0.49567349     0.03200
C116        C  0.00215746  0.96848373  0.52323008     0.03200
C117        C  0.02982047  0.99562541  0.52857923     0.03200
C118        C  0.03410506  0.02465803  0.50267720     0.03200
C119        C  0.00725509  0.86605646  0.55638088     0.43400
N120        N  0.00259736  0.80810461  0.57104661     0.02300
C121        C  0.91948581  0.74053925  0.73009093    -0.05600
H122        H  0.04728140  0.81193827  0.75057710     0.07800
C123        C  0.11059237  0.72299541  0.67692915    -0.06000
Co124      Co  0.95905163  0.80064804  0.64079779     0.74200
N125        N  0.00916400  0.80256197  0.70610035    -0.25100
Co126      Co  0.00245066  0.74687550  0.70581099     0.74100
C127        C  0.11758769  0.74517669  0.70964603     0.43500
N128        N  0.06972312  0.71947694  0.59232394     0.01900
N129        N  0.05935229  0.73999426  0.70203729     0.02000
N130        N  0.89264835  0.77433658  0.68505798    -0.46000
H131        H  0.97854308  0.88361256  0.60984991     0.07700
N132        N  0.99348275  0.82409221  0.68153063     0.02300
N133        N  0.99612852  0.69122738  0.70514610     0.02000
C134        C  0.97933450  0.63698945  0.71958486     0.43600
N135        N  0.05275890  0.73991738  0.56740668    -0.24600
C136        C  0.89167520  0.78557925  0.59140215    -0.05500
N137        N  0.01355076  0.83107489  0.54435095    -0.45700
N138        N  0.97696697  0.67226252  0.72964519    -0.45900
C139        C  0.88567694  0.77250654  0.55372598     0.43400
N140        N  0.92893442  0.77379162  0.68148226     0.02300
N141        N  0.99132394  0.69017014  0.57038829    -0.24600
N142        N  0.98856833  0.82635007  0.59919479    -0.25100
N143        N  0.00767817  0.67064858  0.59654715     0.01900
H144        H  0.96656306  0.67348783  0.51881944     0.07800
H145        H  0.00725943  0.61242188  0.66817596     0.07800
N146        N  0.94533538  0.75393324  0.70707846    -0.25200
N147        N  0.07380123  0.72128783  0.67452810    -0.24800
N148        N  0.94019862  0.75786723  0.57210320     0.02300
C149        C  0.02670727  0.85965407  0.71514090     0.43700
C150        C  0.07470931  0.74400252  0.53799662    -0.06000
N151        N  0.01029252  0.67088655  0.67876511    -0.24800
H152        H  0.12982348  0.71014887  0.65823517     0.07800
N153        N  0.00400711  0.85894547  0.68546710    -0.46000
H154        H  0.06663163  0.75560143  0.51174979     0.07800
C155        C  0.98958142  0.62931290  0.55846019     0.43500
C156        C  0.99067278  0.86261897  0.59272023    -0.05500
Co157      Co  0.99664108  0.74910583  0.56964178     0.73800
N158        N  0.10249508  0.70851885  0.58095297    -0.45700
C159        C  0.88472517  0.75378098  0.71500303     0.43800
N160        N  0.91731691  0.75582209  0.54367265    -0.45700
Co161      Co  0.04073324  0.69518873  0.63578264     0.73900
C162        C  0.00070543  0.63573405  0.68537252    -0.06000
C163        C  0.03040840  0.82247010  0.72843972    -0.05600
N164        N  0.92628775  0.77681104  0.59974030    -0.25100
N165        N  0.08464961  0.75441104  0.72399005    -0.45900
H166        H  0.92431182  0.72310015  0.75376078     0.07800
C167        C  0.97866592  0.66609680  0.54499977    -0.06000
Cl168      Cl  0.99972084  0.74792255  0.63763713    -0.49000
C169        C  0.10756066  0.72345684  0.54730432     0.43500
H170        H  0.87511887  0.80478268  0.60690255     0.07700
N171        N  0.00756740  0.63478264  0.59026471    -0.45700
C172        C  0.13012822  0.94390458  0.00605585     0.43400
N173        N  0.18830146  0.93052582  0.00463311     0.02300
C174        C  0.26126504  0.77700176  0.91856174    -0.05600
H175        H  0.19135735  0.74945229  0.04260207     0.07800
C176        C  0.28041369  0.82498315  0.10907255    -0.06000
Co177      Co  0.19802451  0.86299209  0.95870415     0.74200
N178        N  0.19896304  0.79645665  0.00707403    -0.25100
Co179      Co  0.25412494  0.79963566  0.00068186     0.74100
C180        C  0.26009493  0.79091256  0.11540516     0.43500
N181        N  0.27813009  0.91121456  0.07147561     0.01900
N182        N  0.26158975  0.80176753  0.05757133     0.02000
N183        N  0.22659037  0.82087152  0.89105714    -0.46000
H184        H  0.11479235  0.89072822  0.97574892     0.07700
N185        N  0.17648608  0.82000008  0.99133483     0.02300
N186        N  0.30900939  0.80343372  0.99346863     0.02000
C187        C  0.36300411  0.79180917  0.97609964     0.43600
N188        N  0.25644392  0.93569889  0.05560929    -0.24600
C189        C  0.21023629  0.91671676  0.89399966    -0.05500
N190        N  0.16450737  0.95663828  0.01430313    -0.45700
N191        N  0.32831743  0.78009249  0.97372183    -0.45900
C192        C  0.22515567  0.95370372  0.89027703     0.43400
N193        N  0.22661199  0.82442124  0.92742392     0.02300
N194        N  0.30597403  0.93741835  0.99387436    -0.24600
N195        N  0.17109236  0.90218563  0.98948318    -0.25100
N196        N  0.32640836  0.91135841  0.00895744     0.01900
H197        H  0.32102116  0.99042613  0.97050375     0.07800
H198        H  0.38714726  0.84128773  0.00785714     0.07800
N199        N  0.24695538  0.79939045  0.94398386    -0.25200
N200        N  0.27987840  0.82933455  0.07251766    -0.24800
N201        N  0.23869988  0.93339704  0.94344449     0.02300
C202        C  0.14226273  0.78215254  0.02111436     0.43700
C203        C  0.25166921  0.96404460  0.07859830    -0.06000
N204        N  0.32875771  0.82974663  0.00872642    -0.24800
H205        H  0.29396688  0.84307425  0.12842429     0.07800
N206        N  0.14167469  0.81295203  0.99993124    -0.46000
H207        H  0.23915807  0.99006521  0.07145915     0.07800
C208        C  0.36653663  0.95131860  0.99159889     0.43500
C209        C  0.13476153  0.90781819  0.98972565    -0.05500
Co210      Co  0.24715515  0.93480065  0.99941170     0.73800
N211        N  0.28926948  0.92182949  0.10442773    -0.45700
C212        C  0.24826471  0.79164409  0.88372574     0.43800
N213        N  0.24177948  0.96265070  0.92195064    -0.45700
Co214      Co  0.30364529  0.87021716  0.04074776     0.73900
C215        C  0.36401328  0.82442951  0.99950626    -0.06000
C216        C  0.17997377  0.77171981  0.02647256    -0.05600
N217        N  0.21964665  0.90643324  0.92806541    -0.25100
N218        N  0.24948560  0.77776570  0.08239125    -0.45900
H219        H  0.27917324  0.75385805  0.92376677     0.07800
C220        C  0.32922189  0.96413806  0.98181977    -0.06000
Cl221      Cl  0.25062252  0.86718286  0.99996585    -0.49000
C222        C  0.27315699  0.95444905  0.11094274     0.43500
H223        H  0.19128571  0.90218350  0.87621199     0.07700
N224        N  0.36207435  0.91867715  0.00845251    -0.45700
C225        C  0.98293694  0.86256280  0.21191446     0.43400
N226        N  0.00056645  0.80916283  0.19958198     0.02300
C227        C  0.07998473  0.75176573  0.03668859    -0.05600
H228        H  0.96753554  0.82219045  0.01605397     0.07800
C229        C  0.89556027  0.71351317  0.08653700    -0.06000
Co230      Co  0.04597106  0.80437390  0.13151661     0.74200
N231        N  0.99624793  0.80765195  0.06618006    -0.25100
Co232      Co  0.00160148  0.74926777  0.06715808     0.74100
C233        C  0.89149570  0.72927921  0.04985137     0.43500
N234        N  0.93143454  0.72798919  0.17822194     0.01900
N235        N  0.94553044  0.74100644  0.06912368     0.02000
N236        N  0.10819699  0.78788081  0.07887255    -0.46000
H237        H  0.01369004  0.88779413  0.16202481     0.07700
N238        N  0.01301310  0.82810131  0.09124775     0.02300
N239        N  0.00707760  0.69086098  0.07048202     0.02000
C240        C  0.01206941  0.63305710  0.05737120     0.43600
N241        N  0.94852768  0.74823404  0.20306076    -0.24600
C242        C  0.11537253  0.77663612  0.17389148    -0.05500
N243        N  0.98063990  0.82782274  0.22316725    -0.45700
N244        N  0.01931562  0.66773205  0.04487751    -0.45900
C245        C  0.12180934  0.75446187  0.20693166     0.43400
N246        N  0.07463499  0.77869305  0.08954558     0.02300
N247        N  0.01120561  0.69963414  0.20390940    -0.24600
N248        N  0.01564386  0.82934313  0.17333622    -0.25100
N249        N  0.99471084  0.67746715  0.18054336     0.01900
H250        H  0.04787491  0.69184215  0.24973659     0.07800
H251        H  0.98151710  0.61597785  0.11037015     0.07800
N252        N  0.05752406  0.75788856  0.06516918    -0.25200
N253        N  0.93017908  0.72177892  0.09610892    -0.24800
N254        N  0.06349542  0.76048996  0.19885810     0.02300
C255        C  0.99113996  0.86788666  0.05333576     0.43700
C256        C  0.92317892  0.76292007  0.22554086    -0.06000
N257        N  0.99175075  0.67304455  0.09847047    -0.24800
H258        H  0.87729747  0.69503361  0.10133886     0.07800
N259        N  0.01098715  0.86388378  0.08438126    -0.46000
H260        H  0.92860656  0.78085818  0.24861185     0.07800
C261        C  0.02643318  0.64349468  0.21601398     0.43500
C262        C  0.00629255  0.86445511  0.17915120    -0.05500
Co263      Co  0.00599336  0.75441264  0.20202223     0.73800
N264        N  0.89509495  0.72832947  0.18203046    -0.45700
C265        C  0.11336484  0.77136149  0.04621189     0.43800
N266        N  0.08843322  0.74581073  0.22111372    -0.45700
Co267      Co  0.96153417  0.69952993  0.13867893     0.73900
C268        C  0.99396106  0.63679165  0.09293058    -0.06000
C269        C  0.98128815  0.83057513  0.04105702    -0.05600
N270        N  0.07857108  0.77884624  0.17121235    -0.25100
N271        N  0.92353375  0.74532646  0.04048690    -0.45900
H272        H  0.07228623  0.73897598  0.01095270     0.07800
C273        C  0.03153217  0.68069141  0.22751366    -0.06000
Cl274      Cl  0.00378140  0.75185336  0.13449483    -0.49000
C275        C  0.88795195  0.75011284  0.21121214     0.43500
H276        H  0.13499454  0.78891820  0.15499204     0.07700
N277        N  0.00319553  0.64260188  0.18691282    -0.45700
C278        C  0.22614346  0.74319456  0.22484355     0.03200
C279        C  0.25282824  0.77108631  0.21859116     0.03200
C280        C  0.28040976  0.77793460  0.24523949     0.03200
C281        C  0.28722603  0.75133407  0.27270760     0.03200
C282        C  0.26114069  0.72284269  0.27871215     0.03200
C283        C  0.23242553  0.71698489  0.25301439     0.03200
C284        C  0.13559558  0.71098676  0.52166715     0.43400
N285        N  0.19007615  0.70029689  0.50327010     0.02300
C286        C  0.24956776  0.53837218  0.41996243    -0.05600
H287        H  0.18122125  0.51332376  0.53081924     0.07800
C288        C  0.28694924  0.58748336  0.60667023    -0.06000
Co289      Co  0.19755014  0.63240585  0.45747742     0.74200
N290        N  0.19530369  0.56536280  0.50509703    -0.25100
Co291      Co  0.25356710  0.56774185  0.49978133     0.74100
C292        C  0.27210300  0.55046480  0.61077637     0.43500
N293        N  0.27248192  0.67855964  0.57122444     0.01900
N294        N  0.26151346  0.56909553  0.55614851     0.02000
N295        N  0.21556514  0.58266535  0.39368820    -0.46000
H296        H  0.11303575  0.65884911  0.49316383     0.07700
N297        N  0.17463655  0.59096744  0.48955047     0.02300
N298        N  0.31174794  0.57251702  0.49444522     0.02000
C299        C  0.36968931  0.56022622  0.49025739     0.43600
N300        N  0.25212519  0.70354749  0.55448486    -0.24600
C301        C  0.22454393  0.67528739  0.38859284    -0.05500
N302        N  0.17035203  0.72311820  0.52333627    -0.45700
N303        N  0.33540800  0.54748580  0.48218194    -0.45900
C304        C  0.24649538  0.70824924  0.38198698     0.43400
N305        N  0.22503814  0.59204671  0.42735142     0.02300
N306        N  0.30101146  0.70572784  0.49186360    -0.24600
N307        N  0.17084985  0.67307179  0.48896164    -0.25100
N308        N  0.32307465  0.68217255  0.50827953     0.01900
H309        H  0.30966375  0.75218833  0.45575601     0.07800
H310        H  0.38563922  0.61252861  0.52197522     0.07800
N311        N  0.24513318  0.56655286  0.44346744    -0.25200
N312        N  0.27948463  0.59661528  0.57176483    -0.24800
N313        N  0.23972264  0.70087221  0.44018468     0.02300
C314        C  0.13521771  0.55143981  0.50936422     0.43700
C315        C  0.23823215  0.72626805  0.57990088    -0.06000
N316        N  0.32886564  0.60038297  0.51046974    -0.24800
H317        H  0.30438827  0.60292658  0.62520289     0.07800
N318        N  0.13895647  0.58355710  0.49117203    -0.46000
H319        H  0.22071214  0.74968860  0.57464063     0.07800
C320        C  0.35776919  0.71821505  0.47759264     0.43500
C321        C  0.13559044  0.67729114  0.49951235    -0.05500
Co322      Co  0.24568284  0.70338622  0.49739718     0.73800
N323        N  0.27312440  0.68261205  0.60747787    -0.45700
C324        C  0.22960793  0.54906147  0.38669135     0.43800
N325        N  0.25463425  0.72302183  0.41508185    -0.45700
Co326      Co  0.30141583  0.63972665  0.54090793     0.73900
C327        C  0.36522569  0.59524272  0.50889195    -0.06000
C328        C  0.17261569  0.53902322  0.51853360    -0.05600
N329        N  0.22190633  0.67298429  0.42533344    -0.25100
N330        N  0.25742311  0.54041752  0.57836942    -0.45900
H331        H  0.26057189  0.51170997  0.42723914     0.07800
C332        C  0.32047109  0.72970237  0.47199354    -0.06000
Cl333      Cl  0.24952855  0.63561128  0.49896827    -0.49000
C334        C  0.25178590  0.71198366  0.61477884     0.43500
H335        H  0.21303012  0.65595793  0.36913119     0.07700
N336        N  0.35808114  0.68874669  0.50039762    -0.45700
C337        C  0.22137215  0.75694411  0.72527246     0.03200
C338        C  0.24743074  0.72889639  0.71888981     0.03200
C339        C  0.27519804  0.72234348  0.74521763     0.03200
C340        C  0.28180261  0.74844156  0.77310169     0.03200
C341        C  0.25618282  0.77696302  0.77919453     0.03200
C342        C  0.22840266  0.78351974  0.75273543     0.03200
C343        C  0.38211988  0.75992256  0.80513517     0.43400
N344        N  0.44011204  0.75459223  0.81624301     0.02300
C345        C  0.51507434  0.66888180  0.97004060    -0.05600
H346        H  0.44181738  0.79341089  0.99514397     0.07800
C347        C  0.52505164  0.86188116  0.92034337    -0.06000
Co348      Co  0.45062302  0.70776154  0.88409274     0.74200
N349        N  0.44985264  0.75644424  0.94973147    -0.25100
Co350      Co  0.50459112  0.75192596  0.94753374     0.74100
C351        C  0.50341550  0.86780187  0.95368388     0.43500
N352        N  0.52568963  0.82273405  0.83662373     0.01900
N353        N  0.50971562  0.80959984  0.94509639     0.02000
N354        N  0.48115200  0.64086740  0.92601319    -0.46000
H355        H  0.36659518  0.72761050  0.85757885     0.07700
N356        N  0.42788475  0.74009250  0.92612795     0.02300
N357        N  0.55928187  0.74716226  0.94463551     0.02000
C358        C  0.61313769  0.73053702  0.95697182     0.43600
N359        N  0.50730159  0.80660032  0.80982784    -0.24600
C360        C  0.46534936  0.64259806  0.83429449    -0.05500
N361        N  0.41626308  0.76774951  0.79178961    -0.45700
N362        N  0.57845296  0.72767760  0.96822666    -0.45900
C363        C  0.47462680  0.63780703  0.79554593     0.43400
N364        N  0.47971107  0.67729761  0.92304843     0.02300
N365        N  0.55597087  0.74468910  0.81067710    -0.24600
N366        N  0.42324651  0.73815784  0.84423774    -0.25100
N367        N  0.57588150  0.76105840  0.83644696     0.01900
H368        H  0.57136543  0.71721045  0.76017790     0.07800
H369        H  0.63754716  0.76223117  0.90716232     0.07800
N370        N  0.49957498  0.69434886  0.94814525    -0.25200
N371        N  0.52746800  0.82512914  0.91738782    -0.24800
N372        N  0.48950770  0.69264340  0.81286443     0.02300
C373        C  0.39368564  0.77210161  0.96104288     0.43700
C374        C  0.50551064  0.83043255  0.78125675    -0.06000
N375        N  0.57895901  0.76266140  0.91831529    -0.24800
H376        H  0.53699230  0.88181498  0.90154702     0.07800
N377        N  0.39299475  0.74891096  0.93191941    -0.46000
H378        H  0.49649135  0.82349847  0.75375103     0.07800
C379        C  0.61614608  0.74021050  0.79897159     0.43500
C380        C  0.38687722  0.74039477  0.83979023    -0.05500
Co381      Co  0.49805600  0.74966113  0.81139073     0.73800
N382        N  0.53600536  0.85642856  0.82813117    -0.45700
C383        C  0.50338917  0.63356924  0.95487939     0.43800
N384        N  0.48933060  0.67022568  0.78402057    -0.45700
Co385      Co  0.55249846  0.79323276  0.87727238     0.73900
C386        C  0.61436994  0.75400644  0.92410309    -0.06000
C387        C  0.43078175  0.77684468  0.97307392    -0.05600
N388        N  0.47360957  0.67740575  0.84189015    -0.25100
N389        N  0.49532174  0.83421723  0.96781913    -0.45900
H390        H  0.53303727  0.67428289  0.99312113     0.07800
C391        C  0.57926200  0.73043469  0.78562973    -0.06000
Cl392      Cl  0.50138542  0.75063653  0.87957720    -0.49000
C393        C  0.52491764  0.86375939  0.79359323     0.43500
H394        H  0.44789185  0.62529344  0.85135825     0.07700
N395        N  0.61164765  0.75924037  0.83029716    -0.45700
C396        C  0.77702936  0.28063047  0.74218588     0.03200
C397        C  0.78337108  0.25479957  0.77085524     0.03200
C398        C  0.75674674  0.22730915  0.77844235     0.03200
C399        C  0.72959418  0.21975001  0.75178107     0.03200
C400        C  0.72240518  0.24608731  0.72403516     0.03200
C401        C  0.74841100  0.27404065  0.71665990     0.03200
C402        C  0.94748702  0.38792800  0.77427476     0.43400
N403        N  0.92832221  0.44195250  0.76287360     0.02300
C404        C  0.77214646  0.52942347  0.82519272    -0.05600
H405        H  0.75105197  0.42585727  0.72135588     0.07800
C406        C  0.82040817  0.50341085  0.63923168    -0.06000
Co407      Co  0.85957470  0.45827804  0.80496477     0.52600
N408        N  0.79518015  0.44547333  0.75611970    -0.25100
Co409      Co  0.79645062  0.50242413  0.74986142     0.74100
C410        C  0.78749387  0.48038283  0.64003141     0.43500
N411        N  0.90733397  0.50914315  0.67609125     0.01900
N412        N  0.79932697  0.49668452  0.69437526     0.02000
N413        N  0.81365467  0.50176312  0.86230402    -0.46000
H414        H  0.89673045  0.37411987  0.80972727     0.07700
N415        N  0.81997048  0.42836102  0.77632658     0.02300
N416        N  0.80017646  0.55926762  0.74328245     0.02000
C417        C  0.79122101  0.61714340  0.74693498     0.43600
N418        N  0.93216938  0.49204040  0.69643185    -0.24600
C419        C  0.90568500  0.49055090  0.86746544    -0.05500
N420        N  0.95667259  0.41991954  0.75817345    -0.45700
N421        N  0.77720099  0.58409586  0.75655750    -0.45900
C422        C  0.94137545  0.50839946  0.87094897     0.43400
N423        N  0.81818255  0.49174461  0.82747980     0.02300
N424        N  0.93381796  0.55376429  0.74619288    -0.24600
N425        N  0.90160576  0.42675672  0.78251325    -0.25100
N426        N  0.90951837  0.57092775  0.72542343     0.01900
H427        H  0.98825917  0.56827620  0.76467111     0.07800
H428        H  0.84319785  0.63034926  0.71266636     0.07800
N429        N  0.79452469  0.50814137  0.80555475    -0.25200
N430        N  0.82584927  0.51192357  0.67465213    -0.24800
N431        N  0.92794608  0.50337471  0.81321658     0.02300
C432        C  0.78855308  0.38515776  0.75168060     0.43700
C433        C  0.95670954  0.47647113  0.67332417    -0.06000
N434        N  0.82790798  0.57420567  0.72494926    -0.24800
H435        H  0.83772918  0.51145199  0.61626938     0.07800
N436        N  0.81715574  0.39203338  0.77434089    -0.46000
H437        H  0.98143818  0.46218597  0.68154994     0.07800
C438        C  0.95321840  0.60965781  0.73246557     0.43500
C439        C  0.91118911  0.39219043  0.79078741    -0.05500
Co440      Co  0.93114638  0.49777056  0.75481049     0.73800
N441        N  0.91381353  0.50700051  0.64027655    -0.45700
C442        C  0.78442370  0.52480936  0.86259151     0.43800
N443        N  0.95378540  0.51539593  0.83622023    -0.45700
Co444      Co  0.86751128  0.54205781  0.69978859     0.73900
C445        C  0.82471897  0.61084965  0.72577996    -0.06000
C446        C  0.77347066  0.42030707  0.74008720    -0.05600
N447        N  0.89996024  0.48829606  0.83121097    -0.25100
N448        N  0.77577488  0.47738728  0.67475946    -0.45900
H449        H  0.75076811  0.54698969  0.81438363     0.07800
C450        C  0.96248533  0.57614769  0.75211452    -0.06000
Cl451      Cl  0.86388226  0.50016877  0.75241380    -0.49000
C452        C  0.94436018  0.48665682  0.63603691     0.43500
H453        H  0.88839285  0.47808061  0.88837841     0.07700
N454        N  0.92050628  0.60435096  0.71595027    -0.45700
C455        C  0.97528915  0.13969990  0.29151081     0.43400
N456        N  0.99435837  0.19297403  0.30314562     0.02300
C457        C  0.07702783  0.24800146  0.46617756    -0.05600
H458        H  0.96501791  0.17502002  0.48820383     0.07800
C459        C  0.89061441  0.28457931  0.41454645    -0.06000
Co460      Co  0.04033786  0.19689157  0.37110526     0.74200
N461        N  0.99117515  0.19195587  0.43714078    -0.25100
Co462      Co  0.99671099  0.25047244  0.43726240     0.74100
C463        C  0.88518010  0.27433957  0.45307955     0.43500
N464        N  0.92629870  0.27301862  0.32568126     0.01900
N465        N  0.93993151  0.25933006  0.43557551     0.02000
N466        N  0.10405376  0.21308355  0.42245599    -0.46000
H467        H  0.00609841  0.11454415  0.34107942     0.07700
N468        N  0.00745382  0.17261917  0.41094118     0.02300
N469        N  0.00259706  0.30868729  0.43435945     0.02000
C470        C  0.00834340  0.36633797  0.44786934     0.43600
N471        N  0.94328635  0.25376327  0.30012981    -0.24600
C472        C  0.10989190  0.22424527  0.32863122    -0.05500
N473        N  0.97392852  0.17436427  0.27977242    -0.45700
N474        N  0.01529109  0.33158069  0.45999235    -0.45900
C475        C  0.11673078  0.24641917  0.29567100     0.43400
N476        N  0.06989568  0.22157335  0.41334311     0.02300
N477        N  0.00682455  0.30257207  0.30036279    -0.24600
N478        N  0.00913815  0.17277948  0.32937709    -0.25100
N479        N  0.99027533  0.32393457  0.32434642     0.01900
H480        H  0.04360890  0.31204901  0.25462345     0.07800
H481        H  0.97760828  0.38387425  0.39534193     0.07800
N482        N  0.05331735  0.24171642  0.43860791    -0.25200
N483        N  0.92543933  0.27639361  0.40698109    -0.24800
N484        N  0.05830411  0.24136429  0.30419304     0.02300
C485        C  0.98788676  0.13109670  0.44837820     0.43700
C486        C  0.91775524  0.23925794  0.27763110    -0.06000
N487        N  0.98720766  0.32664565  0.40662865    -0.24800
H488        H  0.87381193  0.30259439  0.39784394     0.07800
N489        N  0.00635613  0.13672743  0.41678485    -0.46000
H490        H  0.92308318  0.22182647  0.25417308     0.07800
C491        C  0.02187102  0.35933611  0.28959907     0.43500
C492        C  0.99886337  0.13787239  0.32397981    -0.05500
Co493      Co  0.00081693  0.24768534  0.30121415     0.73800
N494        N  0.88984507  0.27200954  0.32249222    -0.45700
C495        C  0.11064845  0.22940898  0.45500137     0.43800
N496        N  0.08352887  0.25570374  0.28176911    -0.45700
Co497      Co  0.95692167  0.30046907  0.36566443     0.73900
C498        C  0.98984013  0.36287192  0.41251244    -0.06000
C499        C  0.97762466  0.16780030  0.46220994    -0.05600
N500        N  0.07307734  0.22266416  0.33160157    -0.25100
N501        N  0.91716263  0.25887336  0.46427094    -0.45900
H502        H  0.07041575  0.26088817  0.49214052     0.07800
C503        C  0.02723820  0.32241062  0.27719809    -0.06000
Cl504      Cl  0.99877070  0.24895394  0.36920928    -0.49000
C505        C  0.88243746  0.25077356  0.29290841     0.43500
H506        H  0.12927295  0.21130302  0.34713484     0.07700
N507        N  0.99856645  0.35904353  0.31877574    -0.45700
C508        C  0.24697702  0.22701547  0.28233500     0.03200
C509        C  0.22112550  0.25543389  0.27653960     0.03200
C510        C  0.22839617  0.28218793  0.24908963     0.03200
C511        C  0.25715227  0.27654550  0.22339931     0.03200
C512        C  0.28233272  0.24747723  0.22893384     0.03200
C513        C  0.27494457  0.22058081  0.25606365     0.03200
C514        C  0.13553194  0.29070048  0.97999719     0.43400
N515        N  0.18966550  0.30152713  0.99885239     0.02300
C516        C  0.24823551  0.46297072  0.08316163    -0.05600
H517        H  0.18069182  0.48757450  0.97036706     0.07800
C518        C  0.28925515  0.41433947  0.89593085    -0.06000
Co519      Co  0.19698274  0.36906105  0.04472834     0.74200
N520        N  0.19507334  0.43612448  0.99690065    -0.25100
Co521      Co  0.25363281  0.43411947  0.00245649     0.74100
C522        C  0.27488776  0.45135728  0.89135903     0.43500
N523        N  0.27291067  0.32304771  0.93144436     0.01900
N524        N  0.26230924  0.43254239  0.94582591     0.02000
N525        N  0.21490143  0.41748327  0.10882137    -0.46000
H526        H  0.11273822  0.34265514  0.00836668     0.07700
N527        N  0.17437646  0.41049093  0.01280288     0.02300
N528        N  0.31221854  0.42962452  0.00799444     0.02000
C529        C  0.37056628  0.44174486  0.01177958     0.43600
N530        N  0.25206559  0.29812971  0.94803319    -0.24600
C531        C  0.22322531  0.32610791  0.11369277    -0.05500
N532        N  0.17016021  0.27867600  0.97859069    -0.45700
N533        N  0.33632959  0.45470795  0.01987254    -0.45900
C534        C  0.24532751  0.29342918  0.12016051     0.43400
N535        N  0.22452603  0.40901031  0.07496597     0.02300
N536        N  0.29990702  0.29617723  0.01103209    -0.24600
N537        N  0.17039629  0.32860442  0.01306987    -0.25100
N538        N  0.32257284  0.31967978  0.99502071     0.01900
H539        H  0.30698585  0.24958882  0.04713337     0.07800
H540        H  0.38572539  0.38908796  0.98063592     0.07800
N541        N  0.24441810  0.43508406  0.05911422    -0.25200
N542        N  0.28054513  0.40507399  0.93059685    -0.24800
N543        N  0.23863289  0.30089027  0.06203229     0.02300
C544        C  0.13468066  0.44925291  0.99267074     0.43700
C545        C  0.23838133  0.27524522  0.92257193    -0.06000
N546        N  0.32910011  0.40155641  0.99224054    -0.24800
H547        H  0.30739033  0.39905407  0.87798435     0.07800
N548        N  0.13867157  0.41744817  0.01122891    -0.46000
H549        H  0.22058597  0.25184373  0.92776197     0.07800
C550        C  0.35592566  0.28340587  0.02643633     0.43500
C551        C  0.13528061  0.32433338  0.00218973    -0.05500
Co552      Co  0.24497339  0.29847963  0.00499647     0.73800
N553        N  0.27407609  0.31883905  0.89523707    -0.45700
C554        C  0.22812243  0.45132288  0.11634834     0.43800
N555        N  0.25354532  0.27887734  0.08702694    -0.45700
Co556      Co  0.30170478  0.36205891  0.96188493     0.73900
C557        C  0.36552545  0.40657285  0.99363848    -0.06000
C558        C  0.17218903  0.46196636  0.98311927    -0.05600
N559        N  0.22076110  0.32854070  0.07694080    -0.25100
N560        N  0.25928108  0.46123709  0.92347699    -0.45900
H561        H  0.25907164  0.48995431  0.07642432     0.07800
C562        C  0.31847502  0.27210212  0.03124275    -0.06000
Cl563      Cl  0.24927679  0.36618951  0.00337421    -0.49000
C564        C  0.25270544  0.28935199  0.88779474     0.43500
H565        H  0.21163262  0.34524010  0.13324079     0.07700
N566        N  0.35730351  0.31287057  0.00355262    -0.45700
C567        C  0.25522208  0.22933853  0.72081618     0.03200
C568        C  0.22718489  0.22309689  0.74704651     0.03200
C569        C  0.22174874  0.24864695  0.77565863     0.03200
C570        C  0.24915639  0.27522338  0.78303193     0.03200
C571        C  0.27668032  0.28210768  0.75632270     0.03200
C572        C  0.28240090  0.25633686  0.72790060     0.03200
C573        C  0.61754991  0.27462795  0.55558886     0.43400
N574        N  0.56272239  0.26118884  0.57430954     0.02300
C575        C  0.47293397  0.32638852  0.73007523    -0.05600
H576        H  0.57821286  0.22599256  0.75540249     0.07800
C577        C  0.50442200  0.13894342  0.68547530    -0.06000
Co578      Co  0.54458450  0.30398977  0.64289515     0.74200
N579        N  0.55773821  0.25767843  0.70929411    -0.25100
Co580      Co  0.50087434  0.25002417  0.70808051     0.74100
C581        C  0.52675147  0.14008755  0.71894028     0.43500
N582        N  0.49547333  0.17413170  0.59799605     0.01900
N583        N  0.50762101  0.19407675  0.70684002     0.02000
N584        N  0.50030700  0.36232011  0.68695038    -0.46000
H585        H  0.62888030  0.30761873  0.60828987     0.07700
N586        N  0.57439920  0.27747614  0.68362953     0.02300
N587        N  0.44417042  0.24235047  0.70450278     0.02000
C588        C  0.38604028  0.24592894  0.71266638     0.43600
N589        N  0.51192351  0.19418131  0.57220208    -0.24600
C590        C  0.51294016  0.36534025  0.59492587    -0.05500
N591        N  0.58555501  0.25832549  0.54589160    -0.45700
N592        N  0.41882084  0.25618480  0.72669785    -0.45900
C593        C  0.49604021  0.36826799  0.55881395     0.43400
N594        N  0.51046413  0.32742068  0.68356857     0.02300
N595        N  0.44995544  0.24332403  0.57006207    -0.24600
N596        N  0.57704224  0.28019089  0.60171699    -0.25100
N597        N  0.43304142  0.22259149  0.59492757     0.01900
H598        H  0.43476389  0.26149031  0.51558502     0.07800
H599        H  0.37402993  0.21048802  0.66150463     0.07800
N600        N  0.49425916  0.30606866  0.70820473    -0.25200
N601        N  0.49358159  0.17385206  0.68019664    -0.24800
N602        N  0.50056390  0.31078710  0.57373371     0.02300
C603        C  0.61814295  0.25651451  0.71654980     0.43700
C604        C  0.52570046  0.17087586  0.54685637    -0.06000
N605        N  0.42984147  0.22323844  0.67717182    -0.24800
H606        H  0.49852243  0.11597008  0.66753431     0.07800
N607        N  0.61068365  0.27737889  0.68677296    -0.46000
H608        H  0.53842014  0.17889966  0.52106879     0.07800
C609        C  0.39372676  0.22903224  0.55141491     0.43500
C610        C  0.61182718  0.28849790  0.59307534    -0.05500
Co611      Co  0.50632238  0.25247179  0.57203012     0.73800
N612        N  0.49639538  0.13835679  0.59140942    -0.45700
C613        C  0.47726168  0.36353865  0.71635652     0.43800
N614        N  0.48943552  0.33334766  0.54703273    -0.45700
Co615      Co  0.46255643  0.19796857  0.63781163     0.73900
C616        C  0.39312514  0.22389347  0.67999005    -0.06000
C617        C  0.58329251  0.24384702  0.73202101    -0.05600
N618        N  0.51498431  0.32921198  0.60156064    -0.25100
N619        N  0.52811719  0.17515823  0.73011457    -0.45900
H620        H  0.45551835  0.31616683  0.75210367     0.07800
C621        C  0.42720730  0.24888921  0.54159569    -0.06000
Cl622      Cl  0.50355631  0.25113622  0.64002831    -0.49000
C623        C  0.51519046  0.13384222  0.55983196     0.43500
H624        H  0.52535280  0.38650730  0.61174769     0.07700
N625        N  0.39954522  0.21280040  0.58436612    -0.45700
C626        C  0.28629881  0.97973740  0.13901416     0.43400
N627        N  0.29959795  0.99581827  0.19375103     0.02300
C628        C  0.46444653  0.07811080  0.24903810    -0.05600
H629        H  0.48698811  0.96929444  0.17981893     0.07800
C630        C  0.41295915  0.89142086  0.28728035    -0.06000
Co631      Co  0.36827797  0.04133489  0.19963916     0.74200
N632        N  0.43492804  0.99358653  0.19523873    -0.25100
Co633      Co  0.43436037  0.99803256  0.25385265     0.74100
C634        C  0.45069679  0.88618620  0.27388018     0.43500
N635        N  0.32313846  0.92744863  0.27611707     0.01900
N636        N  0.43237886  0.94134577  0.26165301     0.02000
N637        N  0.41909625  0.10479019  0.21683511    -0.46000
H638        H  0.33806241  0.00862854  0.11546080     0.07700
N639        N  0.40899161  0.00958209  0.17526709     0.02300
N640        N  0.43148192  0.00285119  0.31260560     0.02000
C641        C  0.44471174  0.00737317  0.37065988     0.43600
N642        N  0.29772626  0.94380187  0.25602883    -0.24600
C643        C  0.32568703  0.10999446  0.22594220    -0.05500
N644        N  0.27556903  0.97684026  0.17421065    -0.45700
N645        N  0.45735120  0.01438054  0.33592539    -0.45900
C646        C  0.29263150  0.11669992  0.24755323     0.43400
N647        N  0.40983920  0.07097022  0.22630378     0.02300
N648        N  0.29663697  0.00672009  0.30557156    -0.24600
N649        N  0.32635794  0.01050537  0.17390673    -0.25100
N650        N  0.32118792  0.99120429  0.32720042     0.01900
H651        H  0.25180413  0.04425474  0.31481278     0.07800
H652        H  0.39155118  0.97719249  0.38749954     0.07800
N653        N  0.43593531  0.05457760  0.24543716    -0.25200
N654        N  0.40465412  0.92641940  0.28002002    -0.24800
N655        N  0.30083975  0.05843707  0.24335125     0.02300
C656        C  0.44825311  0.99177287  0.13473075     0.43700
C657        C  0.27605775  0.91776608  0.24118596    -0.06000
N658        N  0.40331447  0.98783157  0.33036918    -0.24800
H659        H  0.39722523  0.87370258  0.30557447     0.07800
N660        N  0.41608967  0.00943557  0.13942481    -0.46000
H661        H  0.25301395  0.92248477  0.22300283     0.07800
C662        C  0.28705758  0.02379813  0.36267025     0.43500
C663        C  0.32050067  0.00140106  0.13851469    -0.05500
Co664      Co  0.29789002  0.00113799  0.24970443     0.73800
N665        N  0.32068293  0.89104024  0.27541696    -0.45700
C666        C  0.45324635  0.11171195  0.22973777     0.43800
N667        N  0.27834059  0.08357305  0.25711782    -0.45700
Co668      Co  0.36275444  0.95786517  0.30392197     0.73900
C669        C  0.40890810  0.98983569  0.36672813    -0.06000
C670        C  0.46096685  0.98126137  0.17180712    -0.05600
N671        N  0.32847274  0.07327364  0.22484912    -0.25100
N672        N  0.46074970  0.91866137  0.25847841    -0.45900
H673        H  0.49143247  0.07079913  0.25919150     0.07800
C674        C  0.27388537  0.02745845  0.32544975    -0.06000
Cl675      Cl  0.36610724  0.99955133  0.25174188    -0.49000
C676        C  0.29175068  0.88299903  0.25369884     0.43500
H677        H  0.34434505  0.12938345  0.21294463     0.07700
N678        N  0.31696756  0.00153595  0.36203677    -0.45700
C679        C  0.49712711  0.03447389  0.52707160     0.03200
C680        C  0.47045443  0.02812713  0.49944681     0.03200
C681        C  0.47656630  0.00048655  0.47274345     0.03200
C682        C  0.50523615  0.97457553  0.47828331     0.03200
C683        C  0.53249718  0.98122426  0.50558877     0.03200
C684        C  0.52642969  0.00940144  0.53192417     0.03200
C685        C  0.38940006  0.73422339  0.45982703     0.43400
N686        N  0.44447482  0.74916707  0.44885061     0.02300
C687        C  0.49698264  0.83176178  0.28473295    -0.05600
H688        H  0.43435880  0.71888108  0.26479401     0.07800
C689        C  0.54287868  0.64592841  0.33559589    -0.06000
Co690      Co  0.45253117  0.79546871  0.38156986     0.74200
N691        N  0.44907720  0.74686341  0.31522313    -0.25100
Co692      Co  0.50720431  0.75249937  0.31664983     0.74100
C693        C  0.52879450  0.64208443  0.29829608     0.43500
N694        N  0.52535474  0.67987452  0.42791775     0.01900
N695        N  0.51585507  0.69593030  0.31791884     0.02000
N696        N  0.46692866  0.85811955  0.33163110    -0.46000
H697        H  0.36775937  0.76648514  0.40957049     0.07700
N698        N  0.42881025  0.76349191  0.34047340     0.02300
N699        N  0.56542553  0.75806350  0.32163637     0.02000
C700        C  0.62351577  0.76236602  0.30969384     0.43600
N701        N  0.50507651  0.69683968  0.45281449    -0.24600
C702        C  0.47834778  0.86378735  0.42488143    -0.05500
N703        N  0.42378412  0.73025857  0.47207120    -0.45700
N704        N  0.58939242  0.77008493  0.29649596    -0.45900
C705        C  0.49885818  0.87045391  0.45855302     0.43400
N706        N  0.47925501  0.82547931  0.34116352     0.02300
N707        N  0.55530532  0.75888323  0.45585406    -0.24600
N708        N  0.42582467  0.76500562  0.42213986    -0.25100
N709        N  0.57738227  0.74283193  0.43216017     0.01900
H710        H  0.56380025  0.79458880  0.50227137     0.07800
H711        H  0.63875963  0.73115152  0.36264092     0.07800
N712        N  0.49750322  0.80922515  0.31439414    -0.25200
N713        N  0.53396710  0.68030414  0.34537765    -0.24800
N714        N  0.49471039  0.81205735  0.44986385     0.02300
C715        C  0.38889206  0.74229103  0.30248880     0.43700
C716        C  0.48943313  0.67143436  0.47484067    -0.06000
N717        N  0.58231593  0.74223059  0.34983685    -0.24800
H718        H  0.56083866  0.62774744  0.35082002     0.07800
N719        N  0.39304384  0.76173010  0.33370156    -0.46000
H720        H  0.47120920  0.67688607  0.49774908     0.07800
C721        C  0.61250157  0.77235966  0.46933451     0.43500
C722        C  0.39008761  0.75740295  0.42699643    -0.05500
Co723      Co  0.49988387  0.75430257  0.45262452     0.73800
N724        N  0.52409298  0.64344537  0.43135017    -0.45700
C725        C  0.47637153  0.86446027  0.29638779     0.43800
N726        N  0.50787766  0.83719455  0.47288851    -0.45700
Co727      Co  0.55518989  0.71084298  0.38909348     0.73900
C728        C  0.61866847  0.74419956  0.34505922    -0.06000
C729        C  0.42607605  0.73235095  0.28997964    -0.05600
N730        N  0.47713738  0.82708819  0.42189033    -0.25100
N731        N  0.51285093  0.67413189  0.28886733    -0.45900
H732        H  0.50458029  0.82375839  0.25707843     0.07800
C733        C  0.57482669  0.77800240  0.48021467    -0.06000
Cl734      Cl  0.50376013  0.75322115  0.38477371    -0.49000
C735        C  0.50161862  0.63619499  0.46028168     0.43500
H736        H  0.46586809  0.88319208  0.40605214     0.07700
N737        N  0.61238630  0.75106033  0.43871358    -0.45700
C738        C  0.70843827  0.88229561  0.75608142     0.43400
N739        N  0.70107622  0.94050097  0.76191041     0.02300
C740        C  0.54025879  0.01845907  0.82979704    -0.05600
H741        H  0.51165901  0.92830008  0.74127422     0.07800
C742        C  0.59560892  0.01173204  0.63649831    -0.06000
Co743      Co  0.63302210  0.95782885  0.80411471     0.74200
N744        N  0.56667275  0.94472241  0.75662821    -0.25100
Co745      Co  0.56868702  0.00131060  0.74849871     0.74100
C746        C  0.55981123  0.99436580  0.63197409     0.43500
N747        N  0.68311776  0.00907114  0.67834799     0.01900
N748        N  0.57279640  0.99690864  0.69001679     0.02000
N749        N  0.58449468  0.99016071  0.86297259    -0.46000
H750        H  0.65633655  0.86942241  0.79003490     0.07700
N751        N  0.59230895  0.92829258  0.77630415     0.02300
N752        N  0.57132869  0.05778901  0.74109546     0.02000
C753        C  0.55321982  0.11271810  0.73090495     0.43600
N754        N  0.70632741  0.99244317  0.70064331    -0.24600
C755        C  0.67862824  0.99965229  0.86596817    -0.05500
N756        N  0.72318103  0.91543592  0.74742980    -0.45700
N757        N  0.54316511  0.08021684  0.74572586    -0.45900
C758        C  0.71244615  0.02199709  0.86557450     0.43400
N759        N  0.59203226  0.98968687  0.82730257     0.02300
N760        N  0.70531607  0.05485861  0.74939636    -0.24600
N761        N  0.67320055  0.92563512  0.77993385    -0.25100
N762        N  0.68054952  0.07173615  0.72891450     0.01900
H763        H  0.75159079  0.07488639  0.78103117     0.07800
H764        H  0.60502731  0.12663360  0.69710429     0.07800
N765        N  0.56656710  0.00575367  0.80686944    -0.25200
N766        N  0.60107934  0.01243617  0.67286107    -0.24800
N767        N  0.70137330  0.00320634  0.81137775     0.02300
C768        C  0.54930863  0.88733335  0.77138192     0.43700
C769        C  0.73020851  0.97260964  0.68151596    -0.06000
N770        N  0.59868363  0.07324154  0.72249019    -0.24800
H771        H  0.61313723  0.02496581  0.61624121     0.07800
N772        N  0.58307177  0.89433157  0.78517936    -0.46000
H773        H  0.75246042  0.95634585  0.69265075     0.07800
C774        C  0.71434266  0.11516593  0.74958529     0.43500
C775        C  0.67552956  0.88888836  0.77799637    -0.05500
Co776      Co  0.70423841  0.99770113  0.75587425     0.73800
N777        N  0.68999472  0.00137191  0.64336840    -0.45700
C778        C  0.55245455  0.00807190  0.86707770     0.43800
N779        N  0.72431949  0.02349483  0.83076789    -0.45700
Co780      Co  0.64115443  0.04203702  0.70016369     0.73900
C781        C  0.58979842  0.10821264  0.71508107    -0.06000
C782        C  0.53837368  0.92107621  0.75211951    -0.05600
N783        N  0.67414482  0.98892188  0.83081341    -0.25100
N784        N  0.54706092  0.98601641  0.66630045    -0.45900
H785        H  0.51452666  0.03074201  0.82134156     0.07800
C786        C  0.72828829  0.08021600  0.76333897    -0.06000
Cl787      Cl  0.63657355  0.99976142  0.75216077    -0.49000
C788        C  0.71925933  0.97846524  0.64408635     0.43500
H789        H  0.66011433  0.99359869  0.88860806     0.07700
N790        N  0.68490358  0.10792758  0.72824816    -0.45700
C791        C  0.47772008  0.00282827  0.03222760     0.03200
C792        C  0.46941532  0.97674597  0.00452816     0.03200
C793        C  0.49461953  0.97119293  0.97511592     0.03200
C794        C  0.52364290  0.99680806  0.96924182     0.03200
C795        C  0.53204258  0.02296454  0.99675748     0.03200
C796        C  0.50727189  0.02802260  0.02662450     0.03200
C797        C  0.38676216  0.26635212  0.04411692     0.43400
N798        N  0.44123611  0.25038973  0.05503244     0.02300
C799        C  0.49661625  0.16854237  0.21850720    -0.05600
H800        H  0.42846241  0.28243517  0.23805474     0.07800
C801        C  0.53311401  0.35705016  0.16717337    -0.06000
Co802      Co  0.44885753  0.20443270  0.12261046     0.74200
N803        N  0.44410569  0.25290187  0.18880708    -0.25100
Co804      Co  0.50222700  0.24898508  0.18755943     0.74100
C805        C  0.51921354  0.36049217  0.20451062     0.43500
N806        N  0.51969231  0.32212718  0.07593817     0.01900
N807        N  0.50889179  0.30576133  0.18586812     0.02000
N808        N  0.46600524  0.14161869  0.17222712    -0.46000
H809        H  0.36403310  0.23441125  0.09442831     0.07700
N810        N  0.42433095  0.23580633  0.16347401     0.02300
N811        N  0.56042992  0.24553363  0.18263112     0.02000
C812        C  0.61849464  0.24154210  0.19378049     0.43600
N813        N  0.50038548  0.30424595  0.05093477    -0.24600
C814        C  0.47740027  0.13682941  0.07978739    -0.05500
N815        N  0.42121813  0.26980812  0.03196639    -0.45700
N816        N  0.58454107  0.23256174  0.20690421    -0.45900
C817        C  0.49934298  0.13118455  0.04673779     0.43400
N818        N  0.47608708  0.17526266  0.16316492     0.02300
N819        N  0.55166359  0.24373778  0.05007412    -0.24600
N820        N  0.42219632  0.23459331  0.08169964    -0.25100
N821        N  0.57281788  0.26163025  0.07335273     0.01900
H822        H  0.56199693  0.20853906  0.00366041     0.07800
H823        H  0.63351529  0.27497238  0.14193339     0.07800
N824        N  0.49445050  0.19191579  0.18960906    -0.25200
N825        N  0.52600423  0.32215338  0.15809692    -0.24800
N826        N  0.49245808  0.18916708  0.05501827     0.02300
C827        C  0.38378319  0.25785082  0.20009140     0.43700
C828        C  0.48555470  0.32884724  0.02767400    -0.06000
N829        N  0.57705028  0.26281469  0.15497824    -0.24800
H830        H  0.55051116  0.37582519  0.15170781     0.07800
N831        N  0.38844838  0.23776804  0.16939335    -0.46000
H832        H  0.46850933  0.32254580  0.00412741     0.07800
C833        C  0.60896419  0.23373562  0.03706982     0.43500
C834        C  0.38667042  0.24286720  0.07684590    -0.05500
Co835      Co  0.49640933  0.24672016  0.05205351     0.73800
N836        N  0.51880208  0.35836980  0.07129402    -0.45700
C837        C  0.47736744  0.13490339  0.20681819     0.43800
N838        N  0.50731314  0.16471854  0.03245025    -0.45700
Co839      Co  0.54927509  0.29274534  0.11542779     0.73900
C840        C  0.61342535  0.26148625  0.15949514    -0.06000
C841        C  0.42067589  0.26795937  0.21327236    -0.05600
N842        N  0.47466019  0.17346620  0.08261002    -0.25100
N843        N  0.50534119  0.32758261  0.21473466    -0.45900
H844        H  0.50544726  0.17607672  0.24590745     0.07800
C845        C  0.57201751  0.22525388  0.02610187    -0.06000
Cl846      Cl  0.49922905  0.24824855  0.11965426    -0.49000
C847        C  0.49736894  0.36458236  0.04153541     0.43500
H848        H  0.46542171  0.11685487  0.09847896     0.07700
N849        N  0.60818722  0.25641083  0.06646566    -0.45700
C850        C  0.13417829  0.05972884  0.49163498     0.43400
N851        N  0.19187750  0.07398198  0.49618766     0.02300
C852        C  0.26173695  0.22956806  0.58154195    -0.05600
H853        H  0.18962507  0.25379533  0.45623162     0.07800
C854        C  0.28049071  0.17836433  0.39180533    -0.06000
Co855      Co  0.19955670  0.14186255  0.54210771     0.74200
N856        N  0.19921671  0.20786807  0.49279806    -0.25100
Co857      Co  0.25534066  0.20630706  0.49957610     0.74100
C858        C  0.25842679  0.21101710  0.38509172     0.43500
N859        N  0.28220943  0.09344296  0.43053798     0.01900
N860        N  0.26298508  0.20302630  0.44303770     0.02000
N861        N  0.22700802  0.18540478  0.60923818    -0.46000
H862        H  0.11672895  0.11220556  0.52202753     0.07700
N863        N  0.17732470  0.18371568  0.50895764     0.02300
N864        N  0.31132740  0.20437191  0.50677467     0.02000
C865        C  0.36564375  0.21636009  0.52564842     0.43600
N866        N  0.26024351  0.06921653  0.44681470    -0.24600
C867        C  0.21290653  0.08974783  0.60823449    -0.05500
N868        N  0.16894152  0.04777367  0.48465072    -0.45700
N869        N  0.33054696  0.22750711  0.52723589    -0.45900
C870        C  0.22867952  0.05328654  0.61264946     0.43400
N871        N  0.22727541  0.18162711  0.57291755     0.02300
N872        N  0.30861242  0.06987343  0.50919569    -0.24600
N873        N  0.17380473  0.10169667  0.51119926    -0.25100
N874        N  0.32930537  0.09583276  0.49384986     0.01900
H875        H  0.32290911  0.01761638  0.53403338     0.07800
H876        H  0.38937151  0.16531909  0.49661531     0.07800
N877        N  0.24765236  0.20684723  0.55623490    -0.25200
N878        N  0.28180547  0.17567951  0.42849632    -0.24800
N879        N  0.24082418  0.07258543  0.55862292     0.02300
C880        C  0.14146292  0.21932462  0.47853550     0.43700
C881        C  0.25529870  0.04032687  0.42455711    -0.06000
N882        N  0.33133258  0.17783417  0.49244517    -0.24800
H883        H  0.29328401  0.15971596  0.37252114     0.07800
N884        N  0.14224222  0.18910241  0.50045978    -0.46000
H885        H  0.24214142  0.01461238  0.43217074     0.07800
C886        C  0.36887179  0.05659411  0.51293079     0.43500
C887        C  0.13760395  0.09547851  0.50910761    -0.05500
Co888      Co  0.25019646  0.07097116  0.50271512     0.73800
N889        N  0.29354980  0.08198392  0.39782948    -0.45700
C890        C  0.24844650  0.21500039  0.61641589     0.43800
N891        N  0.24494397  0.04400231  0.58083476    -0.45700
Co892      Co  0.30663637  0.13600133  0.46091298     0.73900
C893        C  0.36642567  0.18305186  0.50305629    -0.06000
C894        C  0.17910649  0.23131772  0.47284376    -0.05600
N895        N  0.22149170  0.09937634  0.57364802    -0.25100
N896        N  0.24874896  0.22517877  0.41788682    -0.45900
H897        H  0.27967946  0.25281593  0.57623361     0.07800
C898        C  0.33144113  0.04370532  0.52234605    -0.06000
Cl899      Cl  0.25287874  0.13857962  0.50127929    -0.49000
C900        C  0.27732490  0.04897518  0.39230609     0.43500
H901        H  0.19432317  0.10439144  0.62622508     0.07700
N902        N  0.36495376  0.08880327  0.49512931    -0.45700
C903        C  0.77570981  0.78151234  0.25408424     0.03200
C904        C  0.74764202  0.77560401  0.28036083     0.03200
C905        C  0.72266016  0.74601338  0.27611450     0.03200
C906        C  0.72876907  0.71924857  0.24863625     0.03200
C907        C  0.75652360  0.72577138  0.22182767     0.03200
C908        C  0.78284516  0.75423277  0.22732836     0.03200
C909        C  0.69591852  0.61720979  0.25493856     0.43400
N910        N  0.68111254  0.55943434  0.25107462     0.02300
C911        C  0.52373550  0.48997673  0.16834829    -0.05600
H912        H  0.50148152  0.56471756  0.29458286     0.07800
C913        C  0.57312146  0.47342552  0.35963589    -0.06000
Co914      Co  0.61174680  0.55197676  0.20703561     0.74200
N915        N  0.54618363  0.55450295  0.25685194    -0.25100
Co916      Co  0.54654193  0.49848184  0.25106978     0.74100
C917        C  0.54001299  0.49518293  0.36613369     0.43500
N918        N  0.65968877  0.47092437  0.31910235     0.01900
N919        N  0.54968514  0.49179295  0.30805204     0.02000
N920        N  0.56841514  0.52381073  0.14054713    -0.46000
H921        H  0.64284043  0.63482794  0.22565347     0.07700
N922        N  0.57086042  0.57578880  0.24072671     0.02300
N923        N  0.54710635  0.44262795  0.24558070     0.02000
C924        C  0.53208010  0.38807800  0.23030324     0.43600
N925        N  0.68494858  0.49097150  0.30180077    -0.24600
C926        C  0.66101411  0.53763614  0.14033991    -0.05500
N927        N  0.70780406  0.58230584  0.26181088    -0.45700
N928        N  0.52246131  0.42345967  0.22703695    -0.45900
C929        C  0.69892548  0.52564012  0.13457393     0.43400
N930        N  0.57139709  0.52465407  0.17695648     0.02300
N931        N  0.68176638  0.44222802  0.24049027    -0.24600
N932        N  0.65315670  0.57765045  0.23659702    -0.25100
N933        N  0.65583651  0.42254122  0.25730822     0.01900
H934        H  0.73312604  0.42621407  0.21496029     0.07800
H935        H  0.58328182  0.36371798  0.25877047     0.07800
N936        N  0.54592825  0.50480994  0.19384796    -0.25200
N937        N  0.57684265  0.47283366  0.32290287    -0.24800
N938        N  0.68055507  0.50980507  0.18894825     0.02300
C939        C  0.53704492  0.61218538  0.27275662     0.43700
C940        C  0.71482432  0.49376142  0.32322674    -0.06000
N941        N  0.57332413  0.42233343  0.26011605    -0.24800
H942        H  0.59102072  0.45979211  0.37910258     0.07800
N943        N  0.56692181  0.61084118  0.25026981    -0.46000
H944        H  0.74124947  0.50482308  0.31479533     0.07800
C945        C  0.69405419  0.38173601  0.23878563     0.43500
C946        C  0.65974397  0.61386001  0.23823610    -0.05500
Co947      Co  0.68264622  0.50073228  0.24553590     0.73800
N948        N  0.67110400  0.45928690  0.35172095    -0.45700
C949        C  0.53906384  0.50218610  0.13321016     0.43800
N950        N  0.70920799  0.50876992  0.16617573    -0.45700
Co951      Co  0.61622356  0.44684047  0.29023872     0.73900
C952        C  0.56634089  0.38703498  0.25154607    -0.06000
C953        C  0.52373838  0.57492161  0.27747953    -0.05600
N954        N  0.65272247  0.52827971  0.17487092    -0.25100
N955        N  0.52677999  0.50534422  0.33296206    -0.45900
H956        H  0.50051765  0.47199034  0.17364743     0.07800
C957        C  0.70714871  0.41852968  0.22748766    -0.06000
Cl958      Cl  0.61456102  0.49954423  0.24859444    -0.49000
C959        C  0.70543083  0.47274465  0.35599527     0.43500
H960        H  0.64532519  0.55691750  0.12394809     0.07700
N961        N  0.66239155  0.38674796  0.25727717    -0.45700
C962        C  0.77707137  0.24454230  0.27639878     0.03200
C963        C  0.76982499  0.21863597  0.24807702     0.03200
C964        C  0.74249832  0.22653969  0.22137740     0.03200
C965        C  0.71764946  0.25578270  0.22743406     0.03200
C966        C  0.72414398  0.28110062  0.25594614     0.03200
C967        C  0.75192161  0.27374544  0.28206491     0.03200
C968        C  0.72349190  0.77882304  0.74326325     0.03200
C969        C  0.75272751  0.77310471  0.71813150     0.03200
C970        C  0.77960908  0.74639253  0.72635532     0.03200
C971        C  0.77248006  0.72001696  0.75431721     0.03200
C972        C  0.74381986  0.72592922  0.77988619     0.03200
C973        C  0.71737332  0.75325448  0.77217837     0.03200
C974        C  0.21340808  0.98053012  0.86342860     0.43400
N975        N  0.20157678  0.99859371  0.80917658     0.02300
C976        C  0.03835509  0.07787920  0.74983672    -0.05600
H977        H  0.01592566  0.96638927  0.81989637     0.07800
C978        C  0.08951659  0.89404120  0.70959383    -0.06000
Co979      Co  0.13290938  0.04290213  0.80301977     0.74200
N980        N  0.06729369  0.99327373  0.80522698    -0.25100
Co981      Co  0.06912687  0.99922388  0.74655013     0.74100
C982        C  0.05237780  0.88924504  0.72416122     0.43500
N983        N  0.18100414  0.93117498  0.72611546     0.01900
N984        N  0.07143336  0.94313372  0.73767456     0.02000
N985        N  0.08047895  0.10540198  0.78654806    -0.46000
H986        H  0.16116918  0.00799176  0.88676769     0.07700
N987        N  0.09255584  0.00964298  0.82579653     0.02300
N988        N  0.07329462  0.00525576  0.68794083     0.02000
C989        C  0.06064841  0.00848343  0.62974126     0.43600
N990        N  0.20571131  0.94797224  0.74678305    -0.24600
C991        C  0.17572710  0.11277932  0.77758438    -0.05500
N992        N  0.22502150  0.97900384  0.82857575    -0.45700
N993        N  0.04742020  0.01560388  0.66413262    -0.45900
C994        C  0.20924726  0.11982364  0.75651373     0.43400
N995        N  0.09110210  0.07204096  0.77699319     0.02300
N996        N  0.20717190  0.01117353  0.69834787    -0.24600
N997        N  0.17444371  0.01237369  0.82878283    -0.25100
N998        N  0.18371793  0.99503909  0.67599141     0.01900
H999        H  0.25248092  0.04885680  0.69040730     0.07800
H1000       H  0.11443198  0.97939109  0.61418236     0.07800
N1001       N  0.06679591  0.05528069  0.75574409    -0.25200
N1002       N  0.09888496  0.92854237  0.71879826    -0.24800
N1003       N  0.20087202  0.06168648  0.76058855     0.02300
C1004       C  0.05369073  0.98938394  0.86567830     0.43700
C1005       C  0.22837167  0.92262761  0.76100147    -0.06000
N1006       N  0.10191977  0.99089434  0.67070616    -0.24800
H1007       H  0.10475819  0.87644254  0.69113251     0.07800
N1008       N  0.08528104  0.00829964  0.86148895    -0.46000
H1009       H  0.25138748  0.92788673  0.77908170     0.07800
C1010       C  0.21945318  0.02723710  0.64151687     0.43500
C1011       C  0.17938778  0.00202334  0.86398118    -0.05500
Co1012     Co  0.20451590  0.00490223  0.75376691     0.73800
N1013       N  0.18501369  0.89498642  0.72566045    -0.45700
C1014       C  0.04787080  0.11099745  0.77002132     0.43800
N1015       N  0.22361849  0.08701828  0.74719238    -0.45700
Co1016     Co  0.14174036  0.96103196  0.69752511     0.73900
C1017       C  0.09675909  0.99223349  0.63433975    -0.06000
C1018       C  0.04145544  0.97928184  0.82827915    -0.05600
N1019       N  0.17288795  0.07602691  0.77865588    -0.25100
N1020       N  0.04272578  0.92075158  0.74075798    -0.45900
H1021       H  0.01268458  0.07042504  0.73672496     0.07800
C1022       C  0.23073060  0.03189550  0.67916419    -0.06000
Cl1023     Cl  0.13672764  0.00197529  0.75020229    -0.49000
C1024       C  0.21419391  0.88775976  0.74730332     0.43500
H1025       H  0.15681020  0.13192013  0.79015908     0.07700
N1026       N  0.18958600  0.00473434  0.64120138    -0.45700
C1027       C  0.76994039  0.46222483  0.60976249     0.43400
N1028       N  0.75366924  0.44999242  0.55552508     0.02300
C1029       C  0.67209085  0.28432018  0.50880426    -0.05600
H1030       H  0.78618157  0.26667958  0.57175582     0.07800
C1031       C  0.85892540  0.33748099  0.46529752    -0.06000
Co1032     Co  0.70820817  0.38207062  0.55050165     0.74200
N1033       N  0.75727282  0.31615072  0.55571755    -0.25100
Co1034     Co  0.75181727  0.31580350  0.49788858     0.74100
C1035       C  0.86355913  0.29906374  0.47668411     0.43500
N1036       N  0.82334070  0.42735409  0.47585692     0.01900
N1037       N  0.80855163  0.31736228  0.48953416     0.02000
N1038       N  0.64578533  0.33185360  0.53776933    -0.46000
H1039       H  0.73889324  0.41213544  0.63390233     0.07700
N1040       N  0.74046096  0.34180069  0.57521862     0.02300
N1041       N  0.74685416  0.31905597  0.43976909     0.02000
C1042       C  0.74313644  0.30560117  0.38218325     0.43600
N1043       N  0.80611237  0.45290773  0.49488772    -0.24600
C1044       C  0.63935779  0.42448194  0.52480427    -0.05500
N1045       N  0.77294376  0.47371274  0.57494227    -0.45700
N1046       N  0.73515389  0.29324491  0.41666238    -0.45900
C1047       C  0.63223662  0.45744576  0.50319914     0.43400
N1048       N  0.67856668  0.34093407  0.52520669     0.02300
N1049       N  0.74380386  0.45292179  0.44426046    -0.24600
N1050       N  0.73855829  0.42354731  0.57541840    -0.25100
N1051       N  0.76054216  0.42873369  0.42325761     0.01900
H1052       H  0.70638741  0.49751746  0.43363024     0.07800
H1053       H  0.77482778  0.35794134  0.36526312     0.07800
N1054       N  0.69487220  0.31377598  0.50764367    -0.25200
N1055       N  0.82392303  0.34564083  0.47246566    -0.24800
N1056       N  0.69072743  0.44888090  0.50598756     0.02300
C1057       C  0.76230220  0.30526453  0.61610212     0.43700
C1058       C  0.83148291  0.47499760  0.51032899    -0.06000
N1059       N  0.76289853  0.34675192  0.42204897    -0.24800
H1060       H  0.87672786  0.35372393  0.44756939     0.07800
N1061       N  0.74242218  0.33605257  0.61116585    -0.46000
H1062       H  0.82593884  0.49815429  0.52807194     0.07800
C1063       C  0.72954964  0.46306500  0.38649344     0.43500
C1064       C  0.74702624  0.42923352  0.61080367    -0.05500
Co1065     Co  0.74846194  0.45202693  0.50004510     0.73800
N1066       N  0.85976819  0.43012570  0.47795152    -0.45700
C1067       C  0.63935496  0.29653090  0.52922553     0.43800
N1068       N  0.66530123  0.47150527  0.49273569    -0.45700
Co1069     Co  0.79314711  0.38734556  0.44794050     0.73900
C1070       C  0.76142423  0.34096935  0.38586347    -0.06000
C1071       C  0.77233173  0.29184781  0.57934490    -0.05600
N1072       N  0.67608602  0.42149400  0.52503508    -0.25100
N1073       N  0.83089873  0.28860286  0.49143105    -0.45900
H1074       H  0.67989757  0.25652778  0.50178584     0.07800
C1075       C  0.72370749  0.47557045  0.42362793    -0.06000
Cl1076     Cl  0.75034110  0.38413391  0.49897324    -0.49000
C1077       C  0.86689796  0.45945544  0.49959467     0.43500
H1078       H  0.62022222  0.40615528  0.53863469     0.07700
N1079       N  0.75195236  0.43327617  0.38795807    -0.45700
C1080       C  0.03324941  0.52162392  0.50210074     0.03200
C1081       C  0.00668732  0.52795841  0.52997521     0.03200
C1082       C  0.97822409  0.50186192  0.53601779     0.03200
C1083       C  0.97220494  0.47335136  0.50997515     0.03200
C1084       C  0.99911968  0.46675910  0.48236792     0.03200
C1085       C  0.02746560  0.49314890  0.47599745     0.03200
C1086       C  0.87212947  0.56034918  0.01042140     0.43400
N1087       N  0.81403750  0.57339135  0.00713032     0.02300
C1088       C  0.74208822  0.72754649  0.92000456    -0.05600
H1089       H  0.81422044  0.75386739  0.04446212     0.07800
C1090       C  0.72549226  0.67724750  0.11105666    -0.06000
Co1091     Co  0.80540694  0.64099048  0.96018359     0.74200
N1092       N  0.80589014  0.70769992  0.00833996    -0.25100
Co1093     Co  0.75062499  0.70498053  0.00258618     0.74100
C1094       C  0.74747406  0.70996957  0.11798530     0.43500
N1095       N  0.72558834  0.59375576  0.07360405     0.01900
N1096       N  0.74365997  0.70201810  0.05972455     0.02000
N1097       N  0.77544556  0.68304997  0.89223039    -0.46000
H1098       H  0.88827140  0.61332835  0.97956562     0.07700
N1099       N  0.82790775  0.68370801  0.99274812     0.02300
N1100       N  0.69570268  0.70184144  0.99601586     0.02000
C1101       C  0.64259587  0.71267196  0.97601108     0.43600
N1102       N  0.74505751  0.56750986  0.05799922    -0.24600
C1103       C  0.79175922  0.58769776  0.89522000    -0.05500
N1104       N  0.83760608  0.54765656  0.01827282    -0.45700
N1105       N  0.67714441  0.72481838  0.97512405    -0.45900
C1106       C  0.77632958  0.55085175  0.89164775     0.43400
N1107       N  0.77684081  0.68008792  0.92871506     0.02300
N1108       N  0.69669659  0.56730212  0.99538967    -0.24600
N1109       N  0.83158039  0.60149208  0.99153936    -0.25100
N1110       N  0.67619833  0.59288957  0.01110523     0.01900
H1111       H  0.68203550  0.51585983  0.96910292     0.07800
H1112       H  0.61744298  0.66272567  0.00668343     0.07800
N1113       N  0.75714461  0.70545922  0.94547944    -0.25200
N1114       N  0.72470653  0.67456621  0.07435322    -0.24800
N1115       N  0.76438566  0.57059688  0.94541365     0.02300
C1116       C  0.86281567  0.71998232  0.02369920     0.43700
C1117       C  0.74559894  0.53831833  0.08103031    -0.06000
N1118       N  0.67555124  0.67524847  0.01057008    -0.24800
H1119       H  0.71235512  0.65851460  0.13025721     0.07800
N1120       N  0.86274016  0.68950607  0.00217222    -0.46000
H1121       H  0.75449842  0.51097491  0.07355345     0.07800
C1122       C  0.63616729  0.55376107  0.99131321     0.43500
C1123       C  0.86789248  0.59608181  0.99295718    -0.05500
Co1124     Co  0.75532311  0.56912612  0.00150255     0.73800
N1125       N  0.71308446  0.58412616  0.10630674    -0.45700
C1126       C  0.75361084  0.71227964  0.88490955     0.43800
N1127       N  0.76029974  0.54171604  0.92374941    -0.45700
Co1128     Co  0.70006841  0.63436982  0.04264533     0.73900
C1129       C  0.64067554  0.68017474  0.99978828    -0.06000
C1130       C  0.82529505  0.73168429  0.02808508    -0.05600
N1131       N  0.78336464  0.59761914  0.92969907    -0.25100
N1132       N  0.75758594  0.72427316  0.08504182    -0.45900
H1133       H  0.72420417  0.75066115  0.92529728     0.07800
C1134       C  0.67364709  0.54143342  0.98167778    -0.06000
Cl1135     Cl  0.75291972  0.63709932  0.00172368    -0.49000
C1136       C  0.72399749  0.54945002  0.11326756     0.43500
H1137       H  0.81003689  0.60249434  0.87675035     0.07700
N1138       N  0.64037169  0.58565248  0.00971002    -0.45700
C1139       C  0.47881229  0.50318066  0.96595629     0.03200
C1140       C  0.50821371  0.52849814  0.97196957     0.03200
C1141       C  0.53352828  0.52204034  0.00119667     0.03200
C1142       C  0.52476732  0.49511007  0.02830214     0.03200
C1143       C  0.49587451  0.46933828  0.02178483     0.03200
C1144       C  0.47044238  0.47614445  0.99297064     0.03200
C1145       C  0.86276340  0.21420614  0.97502622     0.43400
N1146       N  0.80912504  0.20371554  0.99570277     0.02300
C1147       C  0.75263924  0.04088657  0.08080548    -0.05600
H1148       H  0.81982103  0.01575541  0.97192990     0.07800
C1149       C  0.71072297  0.08663178  0.89488282    -0.06000
Co1150     Co  0.80280490  0.13589888  0.04223567     0.74200
N1151       N  0.80561466  0.06831397  0.99582071    -0.25100
Co1152     Co  0.74704178  0.07019665  0.00120848     0.74100
C1153       C  0.72419124  0.04910235  0.89238088     0.43500
N1154       N  0.72794165  0.18028959  0.92752077     0.01900
N1155       N  0.73863665  0.07052445  0.94493973     0.02000
N1156       N  0.78646146  0.08577421  0.10645416    -0.46000
H1157       H  0.88620613  0.16259693  0.00376779     0.07700
N1158       N  0.82627113  0.09433155  0.01086606     0.02300
N1159       N  0.68860759  0.07440659  0.00671135     0.02000
C1160       C  0.63056841  0.06166935  0.01191570     0.43600
N1161       N  0.74760695  0.20590186  0.94425689    -0.24600
C1162       C  0.77600321  0.17885086  0.11064804    -0.05500
N1163       N  0.82814660  0.22624815  0.97436820    -0.45700
N1164       N  0.66499135  0.04953411  0.02011324    -0.45900
C1165       C  0.75384949  0.21144903  0.11719141     0.43400
N1166       N  0.77589179  0.09533798  0.07312468     0.02300
N1167       N  0.69846453  0.20758116  0.00680514    -0.24600
N1168       N  0.82870886  0.17676379  0.00992718    -0.25100
N1169       N  0.67688519  0.18358460  0.99031097     0.01900
H1170       H  0.68882227  0.25398205  0.04236361     0.07800
H1171       H  0.61431618  0.11299989  0.97863692     0.07800
N1172       N  0.75585923  0.06949987  0.05740237    -0.25200
N1173       N  0.72046246  0.09752442  0.92867404    -0.24800
N1174       N  0.75976368  0.20372081  0.05889174     0.02300
C1175       C  0.86593880  0.05452332  0.99255405     0.43700
C1176       C  0.76182855  0.22871409  0.91872732    -0.06000
N1177       N  0.67133092  0.10170697  0.98988365    -0.24800
H1178       H  0.69201755  0.10103191  0.87676819     0.07800
N1179       N  0.86200512  0.08700352  0.00984136    -0.46000
H1180       H  0.77915269  0.25238010  0.92396583     0.07800
C1181       C  0.64138009  0.21899928  0.02011989     0.43500
C1182       C  0.86357008  0.18100208  0.99809067    -0.05500
Co1183     Co  0.75373662  0.20600921  0.00155498     0.73800
N1184       N  0.72827966  0.18398643  0.89112588    -0.45700
C1185       C  0.77348133  0.05158107  0.11347138     0.43800
N1186       N  0.74506421  0.22580663  0.08392751    -0.45700
Co1187     Co  0.69882527  0.14109506  0.95853804     0.73900
C1188       C  0.63493697  0.09618909  0.99193817    -0.06000
C1189       C  0.82842602  0.04183290  0.98338811    -0.05600
N1190       N  0.77810679  0.17629832  0.07390229    -0.25100
N1191       N  0.74064877  0.04065429  0.92436283    -0.45900
H1192       H  0.74232706  0.01391174  0.07349346     0.07800
C1193       C  0.67848322  0.23128820  0.02617873    -0.06000
Cl1194     Cl  0.75064544  0.13807783  0.00077015    -0.49000
C1195       C  0.74942114  0.21385340  0.88372048     0.43500
H1196       H  0.78813090  0.15994763  0.13019276     0.07700
N1197       N  0.64177899  0.18947853  0.99767550    -0.45700
C1198       C  0.43905345  0.51398196  0.62966217     0.43400
N1199       N  0.42695342  0.50906163  0.68770227     0.02300
C1200       C  0.27402365  0.42111846  0.76127709    -0.05600
H1201       H  0.24781091  0.54665902  0.68889654     0.07800
C1202       C  0.32315302  0.61188041  0.77808491    -0.06000
Co1203     Co  0.36001898  0.46166384  0.69706138     0.74200
N1204       N  0.29347362  0.50995993  0.69749964    -0.25100
Co1205     Co  0.29579545  0.50362924  0.75324675     0.74100
C1206       C  0.29030832  0.61879387  0.75637589     0.43500
N1207       N  0.40686164  0.57424937  0.77601144     0.01900
N1208       N  0.29842790  0.56060471  0.76031690     0.02000
N1209       N  0.31836133  0.39412682  0.72677259    -0.46000
H1210       H  0.38635786  0.48270557  0.61385829     0.07700
N1211       N  0.31722634  0.49406162  0.67530827     0.02300
N1212       N  0.29849075  0.49671915  0.80909272     0.02000
C1213       C  0.28726341  0.47754002  0.86348364     0.43600
N1214       N  0.43258382  0.55891802  0.75561887    -0.24600
C1215       C  0.41424128  0.39669899  0.70888656    -0.05500
N1216       N  0.45211444  0.52146550  0.66393391    -0.45700
N1217       N  0.27548975  0.47619506  0.82860186    -0.45900
C1218       C  0.45127519  0.39311217  0.72379169     0.43400
N1219       N  0.32126359  0.43049088  0.72600144     0.02300
N1220       N  0.43373945  0.49627359  0.80426668    -0.24600
N1221       N  0.39895803  0.49333542  0.67049641    -0.25100
N1222       N  0.40793004  0.51113033  0.82521741     0.01900
H1223       H  0.48644274  0.47224225  0.81783379     0.07800
H1224       H  0.33919753  0.50609781  0.88645976     0.07800
N1225       N  0.29595986  0.44683343  0.74626353    -0.25200
N1226       N  0.32594136  0.57517466  0.77893636    -0.24800
N1227       N  0.43092273  0.44650656  0.73678293     0.02300
C1228       C  0.28126597  0.52498854  0.64021173     0.43700
C1229       C  0.46075615  0.58286551  0.75194685    -0.06000
N1230       N  0.32556274  0.51085713  0.82863157    -0.24800
H1231       H  0.34194122  0.63111697  0.79085497     0.07800
N1232       N  0.31139415  0.50313046  0.64036509    -0.46000
H1233       H  0.48756757  0.57620204  0.74089324     0.07800
C1234       C  0.44816192  0.49263669  0.86432450     0.43500
C1235       C  0.40381669  0.49563880  0.63418202    -0.05500
Co1236     Co  0.43162739  0.50269017  0.74594776     0.73800
N1237       N  0.41602989  0.60773898  0.78638867    -0.45700
C1238       C  0.28929573  0.38649595  0.74878339     0.43800
N1239       N  0.46007747  0.42503341  0.74022024    -0.45700
Co1240     Co  0.36642197  0.54306611  0.80269792     0.73900
C1241       C  0.32096814  0.49990110  0.86379599    -0.06000
C1242       C  0.26985196  0.53001296  0.67791763    -0.05600
N1243       N  0.40390282  0.43087011  0.71801465    -0.25100
N1244       N  0.27605726  0.58587200  0.74653756    -0.45900
H1245       H  0.25100400  0.42600782  0.77951007     0.07800
C1246       C  0.46039697  0.48353128  0.82674268    -0.06000
Cl1247     Cl  0.36366737  0.50265712  0.74976959    -0.49000
C1248       C  0.44978844  0.61549293  0.77275110     0.43500
H1249       H  0.39952787  0.37845235  0.69053539     0.07700
N1250       N  0.41565536  0.50988176  0.86082964    -0.45700
C1251       C  0.75898317  0.80720473  0.38087697     0.43400
N1252       N  0.75679118  0.82010408  0.43889420     0.02300
C1253       C  0.67297800  0.97494977  0.51257977    -0.05600
H1254       H  0.79461451  0.00081414  0.43685562     0.07800
C1255       C  0.86403849  0.92348879  0.52547149    -0.06000
Co1256     Co  0.71038828  0.88773818  0.44882992     0.74200
N1257       N  0.75931153  0.95402852  0.44685620    -0.25100
Co1258     Co  0.75520892  0.95138617  0.50254682     0.74100
C1259       C  0.87111167  0.95674810  0.50436710     0.43500
N1260       N  0.82537879  0.83998425  0.52532898     0.01900
N1261       N  0.81275861  0.94819237  0.50774304     0.02000
N1262       N  0.64384638  0.93133208  0.47898006    -0.46000
H1263       H  0.72775001  0.85983653  0.36538227     0.07700
N1264       N  0.74227947  0.93039824  0.42539808     0.02300
N1265       N  0.75029338  0.94844717  0.55803471     0.02000
C1266       C  0.73556611  0.96051163  0.61285179     0.43600
N1267       N  0.80907135  0.81339380  0.50679701    -0.24600
C1268       C  0.64536160  0.83512042  0.46412676    -0.05500
N1269       N  0.76738876  0.79444351  0.41510976    -0.45700
N1270       N  0.73186854  0.97220868  0.57817225    -0.45900
C1271       C  0.64162794  0.79800874  0.47874945     0.43400
N1272       N  0.68017405  0.92704840  0.47815241     0.02300
N1273       N  0.74686734  0.81434334  0.55573760    -0.24600
N1274       N  0.74087285  0.84814108  0.42180230    -0.25100
N1275       N  0.76342264  0.83992166  0.57567420     0.01900
H1276       H  0.71839461  0.76410652  0.57128219     0.07800
H1277       H  0.76691023  0.91026892  0.63567363     0.07800
N1278       N  0.69777377  0.95209273  0.49772301    -0.25200
N1279       N  0.82737590  0.92053386  0.52613710    -0.24800
N1280       N  0.69595828  0.81715080  0.48957800     0.02300
C1281       C  0.77032165  0.96785043  0.38906188     0.43700
C1282       C  0.83160323  0.78392922  0.50703959    -0.06000
N1283       N  0.76558139  0.92181900  0.57727949    -0.24800
H1284       H  0.88312829  0.90495281  0.53876452     0.07800
N1285       N  0.74896151  0.93715548  0.39006232    -0.46000
H1286       H  0.82356147  0.75636005  0.49915101     0.07800
C1287       C  0.74196825  0.80237915  0.61623237     0.43500
C1288       C  0.74159356  0.84275930  0.38546973    -0.05500
Co1289     Co  0.75223826  0.81556951  0.49742558     0.73800
N1290       N  0.85798779  0.83045844  0.53773978    -0.45700
C1291       C  0.63734762  0.96092107  0.50057641     0.43800
N1292       N  0.67400002  0.78825844  0.49355223    -0.45700
Co1293     Co  0.79559362  0.88071344  0.55135547     0.73900
C1294       C  0.75810348  0.92738993  0.61290967    -0.06000
C1295       C  0.77783106  0.97848181  0.42652611    -0.05600
N1296       N  0.68013987  0.84459231  0.47164855    -0.25100
N1297       N  0.83819013  0.97103078  0.49447018    -0.45900
H1298       H  0.67908339  0.99833535  0.52992279     0.07800
C1299       C  0.73210333  0.78935372  0.57916715    -0.06000
Cl1300     Cl  0.75336207  0.88361182  0.49991856    -0.49000
C1301       C  0.86428714  0.79541166  0.52799316     0.43500
H1302       H  0.62678272  0.85031071  0.44653143     0.07700
N1303       N  0.76150783  0.83361149  0.61157052    -0.45700
C1304       C  0.04465741  0.61259978  0.23239131     0.43400
N1305       N  0.05571306  0.55829118  0.24898435     0.02300
C1306       C  0.21955401  0.50514383  0.33064795    -0.05600
H1307       H  0.23960120  0.57151122  0.21677529     0.07800
C1308       C  0.16626371  0.46493648  0.14414367    -0.06000
Co1309     Co  0.12324927  0.55141039  0.29483730     0.74200
N1310       N  0.18954649  0.55594910  0.24542001    -0.25100
Co1311     Co  0.18888563  0.49795272  0.25056931     0.74100
C1312       C  0.20477137  0.47531539  0.13885363     0.43500
N1313       N  0.07712584  0.47809409  0.17937393     0.01900
N1314       N  0.18723609  0.48969723  0.19372602     0.02000
N1315       N  0.17258177  0.53463382  0.35752175    -0.46000
H1316       H  0.09481498  0.63571910  0.26385435     0.07700
N1317       N  0.16416319  0.57570561  0.26242835     0.02300
N1318       N  0.18461105  0.43999312  0.25585857     0.02000
C1319       C  0.19638543  0.38216078  0.26132159     0.43600
N1320       N  0.05186986  0.49779527  0.19634261    -0.24600
C1321       C  0.08038906  0.52432912  0.36417285    -0.05500
N1322       N  0.03253712  0.57809072  0.22948815    -0.45700
N1323       N  0.20957349  0.41644044  0.26848743    -0.45900
C1324       C  0.04696692  0.50299863  0.37106822     0.43400
N1325       N  0.16386317  0.52446040  0.32397040     0.02300
N1326       N  0.05073374  0.44823393  0.25939403    -0.24600
N1327       N  0.08230833  0.57753793  0.26437972    -0.25100
N1328       N  0.07444404  0.42668103  0.24270279     0.01900
H1329       H  0.00465847  0.43902465  0.29579254     0.07800
H1330       H  0.14347123  0.36608991  0.23047775     0.07800
N1331       N  0.19070201  0.50665826  0.30738263    -0.25200
N1332       N  0.15849974  0.47311387  0.17893690    -0.24800
N1333       N  0.05527429  0.50850445  0.31235984     0.02300
C1334       C  0.20162624  0.61622215  0.24084163     0.43700
C1335       C  0.02948850  0.51224199  0.17061965    -0.06000
N1336       N  0.15648522  0.42282878  0.24027555    -0.24800
H1337       H  0.14953070  0.44711682  0.12711619     0.07800
N1338       N  0.17059692  0.61155527  0.26067233    -0.46000
H1339       H  0.00609594  0.52973565  0.17587105     0.07800
C1340       C  0.03886228  0.39143386  0.27352069     0.43500
C1341       C  0.07737700  0.61297487  0.25567807    -0.05500
Co1342     Co  0.05261195  0.50324050  0.25431850     0.73800
N1343       N  0.07377297  0.47858855  0.14290157    -0.45700
C1344       C  0.20737158  0.52416761  0.36411045     0.43800
N1345       N  0.03261550  0.49449438  0.33767317    -0.45700
Co1346     Co  0.11639386  0.44973255  0.20992467     0.73900
C1347       C  0.16125117  0.38652996  0.24279249    -0.06000
C1348       C  0.21444549  0.57935186  0.23060963    -0.05600
N1349       N  0.08317044  0.52627393  0.32729442    -0.25100
N1350       N  0.21602248  0.49023863  0.17106293    -0.45900
H1351       H  0.24708574  0.49674056  0.32314425     0.07800
C1352       C  0.02710970  0.42849847  0.27937665    -0.06000
Cl1353     Cl  0.12060498  0.50054961  0.25235685    -0.49000
C1354       C  0.04445808  0.49999156  0.13524488     0.43500
H1355       H  0.09930172  0.53655430  0.38362408     0.07700
N1356       N  0.06817947  0.39155788  0.25041390    -0.45700
C1357       C  0.47385934  0.49590641  0.53131904     0.03200
C1358       C  0.46846995  0.52478955  0.50576715     0.03200
C1359       C  0.49434349  0.53071112  0.47699774     0.03200
C1360       C  0.52115823  0.50325275  0.47005656     0.03200
C1361       C  0.52771234  0.47550019  0.49687377     0.03200
C1362       C  0.50157294  0.46947439  0.52524364     0.03200
C1363       C  0.03238779  0.47763094  0.00298665     0.03200
C1364       C  0.00498026  0.47098872  0.97589300     0.03200
C1365       C  0.97662929  0.49725186  0.97066048     0.03200
C1366       C  0.97229461  0.52655107  0.99594095     0.03200
C1367       C  0.99924228  0.53268608  0.02335875     0.03200
C1368       C  0.02705774  0.50592006  0.02948813     0.03200
C1369       C  0.02803632  0.50620779  0.09828061    -0.15500
C1370       C  0.04660488  0.50343606  0.06598864    -0.30700
H1371       H  0.99891763  0.51255420  0.09795066     0.13500
H1372       H  0.07533050  0.49532341  0.06652290     0.14100
C1373       C  0.45170496  0.49465498  0.56565792    -0.15500
C1374       C  0.46077299  0.51542409  0.59513757    -0.30700
H1375       H  0.42861877  0.47564355  0.56664366     0.13500
H1376       H  0.48513947  0.53284889  0.59411183     0.14100
C1377       C  0.45657079  0.50461127  0.93136464    -0.15500
C1378       C  0.46989236  0.49177735  0.89902619    -0.30700
H1379       H  0.42840561  0.51440774  0.93312566     0.13500
H1380       H  0.49767240  0.48084340  0.89795498     0.14100
C1381       C  0.90634790  0.53788118  0.01082206    -0.15500
C1382       C  0.93835161  0.54961374  0.99531639    -0.30700
H1383       H  0.90511198  0.51072563  0.02339378     0.13500
H1384       H  0.94046577  0.57679526  0.98300363     0.14100
C1385       C  0.60032337  0.53365596  0.98677294    -0.15500
C1386       C  0.56882968  0.54383683  0.00409150    -0.30700
H1387       H  0.60004169  0.50923857  0.96961744     0.13500
H1388       H  0.56947756  0.56699419  0.02288698     0.14100
C1389       C  0.02918792  0.49459255  0.40709830    -0.15500
C1390       C  0.04737219  0.49524360  0.43965364    -0.30700
H1391       H  0.99977794  0.48927375  0.40674804     0.13500
H1392       H  0.07650050  0.50210297  0.43964840     0.14100
C1393       C  0.59620206  0.47486642  0.49635996    -0.15500
C1394       C  0.56398392  0.45617371  0.49882851    -0.30700
H1395       H  0.59619416  0.50409330  0.48991359     0.13500
H1396       H  0.56434170  0.42724340  0.50643714     0.14100
C1397       C  0.90373703  0.47448954  0.50867599    -0.15500
C1398       C  0.93523311  0.45492955  0.50671195    -0.30700
H1399       H  0.90478191  0.50336075  0.51616441     0.13500
H1400       H  0.93384483  0.42644644  0.49780491     0.14100
C1401       C  0.75489724  0.79454563  0.68301252    -0.15500
C1402       C  0.73775617  0.78290235  0.65210068    -0.30700
H1403       H  0.77252472  0.81874385  0.68212908     0.13500
H1404       H  0.72137974  0.75781927  0.65292496     0.14100
C1405       C  0.74504472  0.72772014  0.84819515    -0.15500
C1406       C  0.74613422  0.70782053  0.81703907    -0.30700
H1407       H  0.73860295  0.75684059  0.84692175     0.13500
H1408       H  0.75402160  0.67913797  0.81918387     0.14100
C1409       C  0.74437541  0.20809417  0.18471527    -0.15500
C1410       C  0.74393838  0.22771885  0.15302213    -0.30700
H1411       H  0.75127223  0.17907370  0.18379737     0.13500
H1412       H  0.73809225  0.25697841  0.15341807     0.14100
C1413       C  0.75385974  0.29644533  0.31571327    -0.15500
C1414       C  0.74182682  0.28319682  0.34837011    -0.30700
H1415       H  0.76308226  0.32475588  0.31278374     0.13500
H1416       H  0.73134056  0.25518936  0.35027040     0.14100
C1417       C  0.52328774  0.49546644  0.09649878    -0.15500
C1418       C  0.54313299  0.49726304  0.06511133    -0.30700
H1419       H  0.49403614  0.48925527  0.09540431     0.13500
H1420       H  0.57213542  0.50458034  0.06656700     0.14100
C1421       C  0.54024933  0.50056871  0.43368316    -0.15500
C1422       C  0.52214739  0.50371895  0.40157513    -0.30700
H1423       H  0.56845109  0.49118390  0.43273537     0.13500
H1424       H  0.49342094  0.51187727  0.40121856     0.14100
C1425       C  0.71404550  0.34617050  0.23749416    -0.15500
C1426       C  0.70311374  0.31632472  0.25719516    -0.30700
H1427       H  0.73883668  0.34463826  0.22074790     0.13500
H1428       H  0.67899010  0.31764743  0.27489248     0.14100
C1429       C  0.74685392  0.79845631  0.31419658    -0.15500
C1430       C  0.75847680  0.78480309  0.34685066    -0.30700
H1431       H  0.73925757  0.82717348  0.31139577     0.13500
H1432       H  0.76754492  0.75639896  0.34858883     0.14100
C1433       C  0.75607296  0.72634663  0.15384956    -0.15500
C1434       C  0.75368887  0.70703049  0.18557469    -0.30700
H1435       H  0.76348355  0.75537002  0.15417052     0.13500
H1436       H  0.74509209  0.67836820  0.18487455     0.14100
C1437       C  0.70544705  0.68510050  0.24773458    -0.15500
C1438       C  0.71896202  0.65134664  0.25625630    -0.30700
H1439       H  0.67638579  0.68837352  0.24178011     0.13500
H1440       H  0.74772551  0.64873074  0.26389877     0.14100
C1441       C  0.49071807  0.40072030  0.02397801    -0.15500
C1442       C  0.49663356  0.43284690  0.04149024    -0.30700
H1443       H  0.48219345  0.40051284  0.99539092     0.13500
H1444       H  0.50697712  0.43135058  0.06939554     0.14100
C1445       C  0.65352765  0.23757833  0.21402975    -0.15500
C1446       C  0.68324491  0.25847306  0.20571277    -0.30700
H1447       H  0.65467300  0.21827488  0.23695626     0.13500
H1448       H  0.68178388  0.27967943  0.18461314     0.14100
C1449       C  0.59581240  0.04016150  0.01637793    -0.15500
C1450       C  0.56665066  0.04531313  0.99380686    -0.30700
H1451       H  0.59460534  0.01881004  0.03738037     0.13500
H1452       H  0.56885010  0.06451577  0.97090223     0.14100
C1453       C  0.50686321  0.06349521  0.04714265    -0.15500
C1454       C  0.50832564  0.09598719  0.02901526    -0.30700
H1455       H  0.49984458  0.06311878  0.07622404     0.13500
H1456       H  0.51399649  0.09682717  0.99965326     0.14100
C1457       C  0.72442744  0.84667037  0.74558299    -0.15500
C1458       C  0.70469163  0.81513739  0.74525428    -0.30700
H1459       H  0.75376797  0.84626650  0.73978134     0.13500
H1460       H  0.67563766  0.81583306  0.75239026     0.14100
C1461       C  0.54544972  0.99640615  0.93428868    -0.15500
C1462       C  0.53115241  0.00854121  0.90207511    -0.30700
H1463       H  0.57400576  0.98771133  0.93561867     0.13500
H1464       H  0.50301282  0.01857826  0.90138412     0.14100
C1465       C  0.49356379  0.59956548  0.47650132    -0.15500
C1466       C  0.49801632  0.56760802  0.45822792    -0.30700
H1467       H  0.48468975  0.59932260  0.50501004     0.13500
H1468       H  0.50887369  0.56913171  0.43043666     0.14100
C1469       C  0.65807814  0.76361838  0.28797274    -0.15500
C1470       C  0.68847409  0.74501055  0.29851157    -0.30700
H1471       H  0.65836211  0.77911505  0.26227609     0.13500
H1472       H  0.68860091  0.72839230  0.32340707     0.14100
C1473       C  0.56874990  0.96130630  0.50340889    -0.15500
C1474       C  0.60131482  0.97887715  0.50677414    -0.30700
H1475       H  0.56941717  0.93273254  0.49498331     0.13500
H1476       H  0.60196849  0.00793445  0.51352084     0.14100
C1477       C  0.43557914  0.04967438  0.49939783    -0.15500
C1478       C  0.40393790  0.03570330  0.51365267    -0.30700
H1479       H  0.43637706  0.07747354  0.48835940     0.13500
H1480       H  0.40369852  0.00811524  0.52524347     0.14100
C1481       C  0.54857133  0.01080397  0.56642072    -0.15500
C1482       C  0.53809330  0.99257415  0.59733618    -0.30700
H1483       H  0.57285558  0.02826313  0.56655603     0.13500
H1484       H  0.51268180  0.97667996  0.59733559     0.14100
C1485       C  0.50350659  0.93868564  0.45832756    -0.15500
C1486       C  0.50554646  0.90624148  0.47656535    -0.30700
H1487       H  0.49637767  0.93879155  0.42931178     0.13500
H1488       H  0.51135855  0.90587946  0.50589462     0.14100
C1489       C  0.46958760  0.99164764  0.09959015    -0.15500
C1490       C  0.45547594  0.00334140  0.06708424    -0.30700
H1491       H  0.49784925  0.98197914  0.10047287     0.13500
H1492       H  0.42679037  0.01156010  0.06547562     0.14100
C1493       C  0.46709201  0.00900604  0.40506944    -0.15500
C1494       C  0.45340776  0.99948054  0.43864446    -0.30700
H1495       H  0.49569562  0.01756277  0.40275263     0.13500
H1496       H  0.42450700  0.99241700  0.44173976     0.14100
C1497       C  0.49468299  0.40198358  0.53551307    -0.15500
C1498       C  0.50298942  0.43575983  0.54886372    -0.30700
H1499       H  0.48717079  0.39906053  0.50671186     0.13500
H1500       H  0.50870185  0.43937766  0.57796275     0.14100
C1501       C  0.51692897  0.09853576  0.53949335    -0.15500
C1502       C  0.49605788  0.06902883  0.54903174    -0.30700
H1503       H  0.53464832  0.09705746  0.51541676     0.13500
H1504       H  0.47689886  0.07057110  0.57197091     0.14100
C1505       C  0.25225182  0.21121042  0.68409925    -0.15500
C1506       C  0.25563364  0.23082036  0.65284546    -0.30700
H1507       H  0.24273511  0.18294140  0.68221907     0.13500
H1508       H  0.26375854  0.25961962  0.65382237     0.14100
C1509       C  0.22655641  0.15540944  0.74801140    -0.15500
C1510       C  0.20766201  0.18706790  0.74911690    -0.30700
H1511       H  0.25582192  0.15558826  0.74168915     0.13500
H1512       H  0.17877858  0.18613982  0.75663673     0.14100
C1513       C  0.29445960  0.31904464  0.75311431    -0.15500
C1514       C  0.27446130  0.34979621  0.75690968    -0.30700
H1515       H  0.32238131  0.32151705  0.74268492     0.13500
H1516       H  0.24586828  0.34818690  0.76565845     0.14100
C1517       C  0.31895282  0.25310331  0.70959614    -0.15500
C1518       C  0.35033960  0.25525941  0.72901427    -0.30700
H1519       H  0.32046447  0.24400374  0.68129855     0.13500
H1520       H  0.34987407  0.26307063  0.75784342     0.14100
C1521       C  0.06702606  0.45555312  0.00298056    -0.15500
C1522       C  0.09942919  0.46998345  0.99095167    -0.30700
H1523       H  0.06559080  0.42718108  0.01237885     0.13500
H1524       H  0.10019231  0.49804043  0.98052426     0.14100
C1525       C  0.40593629  0.46265610  0.01428978    -0.15500
C1526       C  0.43459427  0.45563467  0.99134248    -0.30700
H1527       H  0.40825740  0.48456410  0.03442961     0.13500
H1528       H  0.43125659  0.43584310  0.96927190     0.14100
C1529       C  0.24717655  0.27321544  0.85121501    -0.15500
C1530       C  0.25222714  0.29276366  0.82006399    -0.30700
H1531       H  0.23875979  0.24453185  0.85004418     0.13500
H1532       H  0.26246794  0.32072028  0.82239480     0.14100
C1533       C  0.20636416  0.31642463  0.24760295    -0.15500
C1534       C  0.21756453  0.34755308  0.26450456    -0.30700
H1535       H  0.18171735  0.31616821  0.23090097     0.13500
H1536       H  0.24320180  0.34779612  0.27981917     0.14100
C1537       C  0.24949535  0.22779858  0.34968282    -0.15500
C1538       C  0.24934052  0.20814962  0.31851809    -0.30700
H1539       H  0.24395067  0.25715434  0.34916885     0.13500
H1540       H  0.25596800  0.17912366  0.31985482     0.14100
C1541       C  0.31710649  0.24567267  0.20725502    -0.15500
C1542       C  0.34785742  0.26318178  0.21864684    -0.30700
H1543       H  0.31822807  0.22700839  0.18398067     0.13500
H1544       H  0.34690127  0.28030835  0.24309430     0.14100
C1545       C  0.29424970  0.18442657  0.25416201    -0.15500
C1546       C  0.27534731  0.15240611  0.25547248    -0.30700
H1547       H  0.32333039  0.18409333  0.24716803     0.13500
H1548       H  0.24602652  0.15238237  0.26140936     0.14100
C1549       C  0.25585417  0.27704066  0.15562702    -0.15500
C1550       C  0.25549131  0.29613082  0.18735820    -0.30700
H1551       H  0.26188176  0.24781649  0.15573250     0.13500
H1552       H  0.24808894  0.32504389  0.18691544     0.14100
C1553       C  0.01218708  0.40053486  0.47009323    -0.15500
C1554       C  0.99695167  0.43279536  0.45941836    -0.30700
H1555       H  0.02681753  0.39903415  0.49613045     0.13500
H1556       H  0.98115661  0.43425574  0.43418369     0.14100
C1557       C  0.84562625  0.24353303  0.27680606    -0.15500
C1558       C  0.81363954  0.24584958  0.29572618    -0.30700
H1559       H  0.84509340  0.23716734  0.24762673     0.13500
H1560       H  0.81452915  0.25374076  0.32455950     0.14100
C1561       C  0.15244421  0.25529291  0.27793848    -0.15500
C1562       C  0.18471478  0.25332222  0.29610320    -0.30700
H1563       H  0.15207484  0.26195170  0.24879347     0.13500
H1564       H  0.18396249  0.24507406  0.32481199     0.14100
C1565       C  0.95603149  0.50354401  0.57065138    -0.15500
C1566       C  0.96438847  0.48278846  0.60050313    -0.30700
H1567       H  0.93446768  0.52406651  0.57240157     0.13500
H1568       H  0.98746323  0.46391922  0.59925948     0.14100
C1569       C  0.96405980  0.51041058  0.90487496    -0.15500
C1570       C  0.95287703  0.49567392  0.93735345    -0.30700
H1571       H  0.99103526  0.52328423  0.90297252     0.13500
H1572       H  0.92602968  0.48280126  0.94009350     0.14100
C1573       C  0.77325214  0.65230022  0.75445163    -0.15500
C1574       C  0.79199129  0.68417536  0.75312672    -0.30700
H1575       H  0.74386742  0.65197500  0.76008660     0.13500
H1576       H  0.82099356  0.68336985  0.74630776     0.14100
C1577       C  0.73068225  0.15171506  0.75518186    -0.15500
C1578       C  0.71154611  0.18284376  0.74958322    -0.30700
H1579       H  0.75927996  0.15288953  0.76378382     0.13500
H1580       H  0.68363023  0.18061387  0.73923409     0.14100
C1581       C  0.75694071  0.22962109  0.84692875    -0.15500
C1582       C  0.75326502  0.20993957  0.81584507    -0.30700
H1583       H  0.76549854  0.25826575  0.84556284     0.13500
H1584       H  0.74304728  0.18201025  0.81851368     0.14100
C1585       C  0.68496772  0.24935042  0.70796661    -0.15500
C1586       C  0.65508760  0.24773205  0.72992746    -0.30700
H1587       H  0.68198668  0.25791375  0.67940990     0.13500
H1588       H  0.65775269  0.24018800  0.75879964     0.14100
C1589       C  0.74619244  0.29541968  0.68163003    -0.15500
C1590       C  0.76667348  0.28631889  0.65201594    -0.30700
H1591       H  0.72535732  0.31667701  0.67932219     0.13500
H1592       H  0.78572344  0.26339542  0.65379840     0.14100
C1593       C  0.79448051  0.31782828  0.74497714    -0.15500
C1594       C  0.77423997  0.34861770  0.74196602    -0.30700
H1595       H  0.82248540  0.32035201  0.75502686     0.13500
H1596       H  0.74557555  0.34718547  0.73375939     0.14100
C1597       C  0.51032617  0.59686548  0.97114351    -0.15500
C1598       C  0.50729776  0.56494395  0.95239798    -0.30700
H1599       H  0.51673265  0.59638627  0.00030916     0.13500
H1600       H  0.49917056  0.56587412  0.92362528     0.14100
C1601       C  0.65161267  0.73796528  0.77925738    -0.15500
C1602       C  0.68227788  0.75372875  0.79302067    -0.30700
H1603       H  0.65247405  0.72430780  0.75268224     0.13500
H1604       H  0.68150922  0.76788223  0.81929773     0.14100
C1605       C  0.49456685  0.90304209  0.97189685    -0.15500
C1606       C  0.49518351  0.93579321  0.95419619    -0.30700
H1607       H  0.48931754  0.90200551  0.00134678     0.13500
H1608       H  0.50181520  0.93650427  0.92500476     0.14100
C1609       C  0.21036231  0.82015177  0.74993124    -0.15500
C1610       C  0.23016239  0.85131190  0.75335031    -0.30700
H1611       H  0.18190861  0.82200057  0.74109933     0.13500
H1612       H  0.25910596  0.85022766  0.76066773     0.14100
C1613       C  0.29380043  0.68602169  0.74752975    -0.15500
C1614       C  0.27397765  0.65458843  0.74730220    -0.30700
H1615       H  0.32282763  0.68517234  0.75442690     0.13500
H1616       H  0.24471056  0.65518768  0.74141650     0.14100
C1617       C  0.31613437  0.74635979  0.79516808    -0.15500
C1618       C  0.34714412  0.76419093  0.78466023    -0.30700
H1619       H  0.31638590  0.72771936  0.81855922     0.13500
H1620       H  0.34706617  0.78103364  0.75985567     0.14100
C1621       C  0.40432036  0.53892357  0.48709559    -0.15500
C1622       C  0.43412512  0.54690681  0.50785939    -0.30700
H1623       H  0.40509616  0.51569787  0.46838582     0.13500
H1624       H  0.43267456  0.56817384  0.52868947     0.14100
C1625       C  0.06757565  0.54434719  0.50094179    -0.15500
C1626       C  0.10030642  0.53012323  0.51136946    -0.30700
H1627       H  0.06558462  0.57302494  0.49264573     0.13500
H1628       H  0.10154201  0.50179572  0.52096823     0.14100
C1629       C  0.24698183  0.72898237  0.65101812    -0.15500
C1630       C  0.24927945  0.70977887  0.68262023    -0.30700
H1631       H  0.24122608  0.75830360  0.65156843     0.13500
H1632       H  0.25636794  0.68083622  0.68130737     0.14100
C1633       C  0.32181014  0.75315588  0.29482431    -0.15500
C1634       C  0.35356774  0.73850028  0.28227194    -0.30700
H1635       H  0.32145217  0.76806038  0.32067861     0.13500
H1636       H  0.35379175  0.72429212  0.25600094     0.14100
C1637       C  0.29788372  0.81513532  0.24857019    -0.15500
C1638       C  0.27721361  0.84584008  0.24658566    -0.30700
H1639       H  0.32654050  0.81732675  0.25681356     0.13500
H1640       H  0.24819721  0.84380425  0.23971604     0.14100
C1641       C  0.21028352  0.68242881  0.25462270    -0.15500
C1642       C  0.22143021  0.65179464  0.23695529    -0.30700
H1643       H  0.18617157  0.68159378  0.27233881     0.13500
H1644       H  0.24644087  0.65258030  0.22049713     0.14100
C1645       C  0.25854389  0.70425455  0.31517174    -0.15500
C1646       C  0.25729530  0.72426504  0.34631461    -0.30700
H1647       H  0.25195024  0.67507015  0.31617322     0.13500
H1648       H  0.26250805  0.75371185  0.34547251     0.14100
C1649       C  0.01507747  0.59863170  0.03538628    -0.15500
C1650       C  0.99789780  0.56707152  0.04578217    -0.30700
H1651       H  0.03068228  0.59939125  0.00983501     0.13500
H1652       H  0.98063386  0.56667962  0.07015161     0.14100
C1653       C  0.85131028  0.75734267  0.22721251    -0.15500
C1654       C  0.81968761  0.75169166  0.20871270    -0.30700
H1655       H  0.85064955  0.76644173  0.25560270     0.13500
H1656       H  0.82159166  0.74057116  0.18110975     0.14100
C1657       C  0.15734205  0.74431611  0.22413185    -0.15500
C1658       C  0.18960392  0.74605519  0.20573232    -0.30700
H1659       H  0.15688621  0.73690470  0.25310226     0.13500
H1660       H  0.18881773  0.75495263  0.17724162     0.14100
C1661       C  0.25537395  0.77567645  0.84730964    -0.15500
C1662       C  0.25337787  0.79527477  0.81594663    -0.30700
H1663       H  0.26185541  0.74657304  0.84658504     0.13500
H1664       H  0.24506764  0.82381569  0.81786976     0.14100
C1665       C  0.25325810  0.77236102  0.15066720    -0.15500
C1666       C  0.25504845  0.79070258  0.18262766    -0.30700
H1667       H  0.24709821  0.74307760  0.15032188     0.13500
H1668       H  0.26246407  0.81958948  0.18188140     0.14100
C1669       C  0.43341173  0.95668467  0.00511077    -0.15500
C1670       C  0.40236341  0.97141799  0.99063545    -0.30700
H1671       H  0.43252042  0.92959074  0.01779083     0.13500
H1672       H  0.40330564  0.99871926  0.97836406     0.14100
C1673       C  0.15328123  0.75484204  0.72628413    -0.15500
C1674       C  0.18476514  0.75443004  0.70677881    -0.30700
H1675       H  0.15373597  0.76134250  0.75548126     0.13500
H1676       H  0.18327626  0.74697379  0.67795567     0.14100
C1677       C  0.98906046  0.59350072  0.53855992    -0.15500
C1678       C  0.00702157  0.56326614  0.55105632    -0.30700
H1679       H  0.97432461  0.59208273  0.51259675     0.13500
H1680       H  0.02231555  0.56424913  0.57670397     0.14100
C1681       C  0.84759840  0.74761724  0.73007294    -0.15500
C1682       C  0.81692556  0.74964532  0.70926922    -0.30700
H1683       H  0.84555954  0.74119599  0.75927956     0.13500
H1684       H  0.81928444  0.75739363  0.68040288     0.14100
C1685       C  0.93893768  0.95515646  0.49884583    -0.15500
C1686       C  0.90708076  0.97415960  0.49757397    -0.30700
H1687       H  0.93846882  0.92608651  0.50583510     0.13500
H1688       H  0.90735474  0.00353113  0.49184576     0.14100
C1689       C  0.06747463  0.04862127  0.50319580    -0.15500
C1690       C  0.10048759  0.03637231  0.49111382    -0.30700
H1691       H  0.06408928  0.07698079  0.51176033     0.13500
H1692       H  0.10290893  0.00823070  0.48137357     0.14100
C1693       C  0.05232447  0.99582409  0.56284133    -0.15500
C1694       C  0.03858406  0.00817643  0.59525611    -0.30700
H1695       H  0.08080421  0.98734471  0.56061382     0.13500
H1696       H  0.01027554  0.01756206  0.59655228     0.14100
C1697       C  0.98724294  0.09501361  0.46779302    -0.15500
C1698       C  0.00586870  0.06564791  0.45454891    -0.30700
H1699       H  0.97256167  0.09276157  0.49380343     0.13500
H1700       H  0.02154095  0.06806345  0.42916148     0.14100
C1701       C  0.00136042  0.93436625  0.54685267    -0.15500
C1702       C  0.00911044  0.90037181  0.53337735    -0.30700
H1703       H  0.99559623  0.93774860  0.57599854     0.13500
H1704       H  0.01645482  0.89762675  0.50448707     0.14100
C1705       C  0.78448815  0.84640543  0.23386771    -0.15500
C1706       C  0.79620738  0.81713306  0.25369376    -0.30700
H1707       H  0.75989327  0.84401912  0.21705086     0.13500
H1708       H  0.81958004  0.82000584  0.27207426     0.14100
C1709       C  0.78227978  0.15271565  0.26329171    -0.15500
C1710       C  0.79172311  0.18409331  0.24524081    -0.30700
H1711       H  0.75816110  0.15232962  0.28099995     0.13500
H1712       H  0.81432191  0.18404175  0.22570035     0.14100
C1713       C  0.97614441  0.00452732  0.40015505    -0.15500
C1714       C  0.95955993  0.00058677  0.43316379    -0.30700
H1715       H  0.00492814  0.01249745  0.39859975     0.13500
H1716       H  0.93128410  0.99111942  0.43323741     0.14100
C1717       C  0.15407985  0.25196781  0.77398236    -0.15500
C1718       C  0.18518658  0.25204882  0.79383655    -0.30700
H1719       H  0.15474556  0.24623844  0.74463318     0.13500
H1720       H  0.18343275  0.25893965  0.82276333     0.14100
C1721       C  0.99006464  0.40404994  0.96738125    -0.15500
C1722       C  0.00494879  0.43589177  0.95407709    -0.30700
H1723       H  0.97786099  0.40385080  0.99471080     0.13500
H1724       H  0.01689626  0.43660603  0.92665152     0.14100
C1725       C  0.85112500  0.25414082  0.76887593    -0.15500
C1726       C  0.82006940  0.25183059  0.78882825    -0.30700
H1727       H  0.85010424  0.26184468  0.73994464     0.13500
H1728       H  0.82207151  0.24274754  0.81723737     0.14100
C1729       C  0.93421284  0.04726288  0.00089907    -0.15500
C1730       C  0.90095367  0.03311141  0.99126870    -0.30700
H1731       H  0.93663900  0.07615751  0.00811353     0.13500
H1732       H  0.89928437  0.00455198  0.98262306     0.14100
C1733       C  0.03280034  0.98777665  0.90097428    -0.15500
C1734       C  0.04556418  0.00358984  0.93226626    -0.30700
H1735       H  0.00597915  0.97442439  0.90109860     0.13500
H1736       H  0.07237145  0.01691656  0.93261828     0.14100
C1737       C  0.00352332  0.93471468  0.04383485    -0.15500
C1738       C  0.98678754  0.90325567  0.03298372    -0.30700
H1739       H  0.02096748  0.93454268  0.06807194     0.13500
H1740       H  0.97072626  0.90318681  0.00778700     0.14100
C1741       C  0.06311789  0.95262788  0.99321503    -0.15500
C1742       C  0.09582136  0.96634470  0.00508531    -0.30700
H1743       H  0.06061879  0.92386417  0.98570656     0.13500
H1744       H  0.09742038  0.99479955  0.01401454     0.14100
C1745       C  0.97263292  0.99585506  0.09486607    -0.15500
C1746       C  0.95386759  0.99788084  0.06289213    -0.30700
H1747       H  0.00183221  0.98985735  0.09449928     0.13500
H1748       H  0.92501713  0.00555715  0.06343288     0.14100
C1749       C  0.00661514  0.09792644  0.96490155    -0.15500
C1750       C  0.99638057  0.06494420  0.95052512    -0.30700
H1751       H  0.01371595  0.09968688  0.99389371     0.13500
H1752       H  0.99097875  0.06247236  0.92127363     0.14100
loop_ 
_geom_bond_atom_site_label_1 
_geom_bond_atom_site_label_2 
_geom_bond_distance 
_geom_bond_site_symmetry_2 
_ccdc_geom_bond_type 
C1            C2   1.420   1_455  A
C1            C6   1.415   1_545  A
C1         C1734   1.493       .  S
C2            C3   1.421   1_556  A
C2         C1750   1.495       .  S
C3            C4   1.423   1_545  A
C3         C1729   1.503       .  S
C4            C5   1.425   1_655  A
C4         C1746   1.498       .  S
C5            C6   1.415   1_554  A
C5         C1737   1.497       .  S
C6         C1741   1.496       .  S
C7         C1749   1.494       .  S
C7           N25   1.365       .  A
C7           C44   1.450   1_455  S
N8           N25   1.335       .  A
N8           N30   1.323   1_455  A
N8          Co45   2.153   1_455  S
C9           N34   1.338       .  A
C9           C47   1.450       .  S
C9           H54   1.081       .  S
H10          C51   1.081       .  S
C11          N35   1.337       .  A
C11          C15   1.457       .  S
C11          H40   1.082       .  S
Co12         N30   2.060       .  S
Co12         N20   2.108       .  S
Co12         N52   2.087       .  S
Co12         N28   2.084       .  S
Co12        Cl56   2.437   1_655  S
N13          C51   1.333       .  A
N13          N20   1.315   1_455  A
N13         Co14   2.036       .  S
Co14         N17   2.073       .  S
Co14         N34   2.075   1_455  S
Co14         N21   2.030   1_455  S
Co14        Cl56   2.464       .  S
C15        C1717   1.463       .  S
C15          N53   1.346       .  A
N16          N23   1.322       .  A
N16          N46   1.322       .  A
N16         Co49   2.082       .  S
N17          N35   1.319       .  A
N17          N53   1.323       .  A
N18          C47   1.351       .  A
N18          N28   1.325       .  A
H19          C44   1.081       .  S
N20          N41   1.327   1_655  A
N21          N39   1.317   1_655  A
N21          N26   1.317       .  A
C22          N26   1.334       .  A
C22          C50   1.462       .  S
C22         C402   1.443       .  S
N23          C38   1.337       .  A
N23         Co45   2.059   1_455  S
C24          N52   1.338       .  A
C24          C27   1.456       .  S
C24          H58   1.082       .  S
C27          N48   1.340       .  A
C27        C1145   1.446       .  S
N28          N34   1.319       .  A
N29          C55   1.355       .  A
N29          N31   1.324   1_655  A
N29         Co45   2.151       .  S
N30          C44   1.334       .  A
N31          N59   1.325       .  A
N31         Co49   2.067       .  S
H32          C55   1.081       .  S
H33          C50   1.081   1_455  S
N35         Co49   2.076       .  S
N36          N48   1.320       .  A
N36          N52   1.323       .  A
N36         Co45   2.052       .  S
C37          N41   1.356       .  A
C37          C51   1.442       .  S
C37        C1014   1.451       .  S
C38          C57   1.447       .  S
C38          H42   1.082       .  S
N39          C50   1.342   1_455  A
N39         Co49   2.092       .  S
C43        C1721   1.498       .  S
C43          N59   1.344   1_655  A
C43          C55   1.480       .  S
Co45        Cl56   2.460   1_655  S
N46          C57   1.345       .  A
C47        C1725   1.466       .  S
Co49        Cl56   2.437       .  S
C57         C514   1.446       .  S
C60          N78   1.353       .  A
C60          C97   1.457       .  S
C60        C1185   1.466       .  S
N61          N78   1.328       .  A
N61          N83   1.318       .  A
N61         Co98   2.083       .  S
C62          N87   1.321       .  A
C62         C100   1.422       .  S
C62         H107   1.081       .  S
H63         C104   1.081       .  S
C64          N88   1.339       .  A
C64          C68   1.462       .  S
C64          H93   1.081       .  S
Co65         N83   2.066       .  S
Co65         N73   2.077       .  S
Co65        N105   2.071       .  S
Co65         N81   2.098       .  S
Co65       Cl109   2.422       .  S
N66         C104   1.341   1_545  A
N66          N73   1.318       .  A
N66         Co67   2.093   1_545  S
Co67         N70   1.989       .  S
Co67         N87   1.989   1_565  S
Co67         N74   2.099       .  S
Co67       Cl109   2.455   1_565  S
C68         N106   1.326       .  A
C68         C225   1.426       .  S
N69          N76   1.326       .  A
N69          N99   1.321       .  A
N69        Co102   2.070       .  S
N70          N88   1.316       .  A
N70         N106   1.312       .  A
N71         C100   1.355       .  A
N71          N81   1.325       .  A
H72          C97   1.083       .  S
N73          N94   1.328       .  A
N74          N92   1.319       .  A
N74          N79   1.327   1_565  A
C75        C1713   1.481   1_565  S
C75          N79   1.350   1_565  A
C75         C103   1.463       .  S
N76          C91   1.350       .  A
N76         Co98   2.132   1_565  S
C77         N105   1.335       .  A
C77          C80   1.453       .  S
C77         H111   1.081       .  S
C80        C1709   1.490       .  S
C80         N101   1.362       .  A
N81          N87   1.314       .  A
N82         C108   1.339       .  A
N82          N84   1.322       .  A
N82         Co98   2.071   1_565  S
N83          C97   1.327       .  A
N84         N112   1.321       .  A
N84        Co102   2.075       .  S
H85         C108   1.081   1_545  S
H86         C103   1.082       .  S
N88        Co102   2.092       .  S
N89         N101   1.333       .  A
N89         N105   1.323       .  A
N89         Co98   2.134       .  S
C90        C1745   1.475   1_545  S
C90          N94   1.350       .  A
C90         C104   1.457   1_545  S
C91         C110   1.473       .  S
C91          H95   1.082       .  S
N92         C103   1.343       .  A
N92        Co102   2.085       .  S
C96         N112   1.344       .  A
C96         C108   1.451       .  S
C96        C1281   1.448       .  S
Co98       Cl109   2.471       .  S
N99         C110   1.343       .  A
C100        C455   1.429       .  S
Co102      Cl109   2.430   1_565  S
C110       C1705   1.484       .  S
C113        C114   1.414   1_455  A
C113        C118   1.413       .  A
C113       C1698   1.491       .  S
C114        C115   1.421   1_545  A
C114       C1714   1.502       .  S
C115        C116   1.420   1_655  A
C115       C1685   1.490       .  S
C116        C117   1.419       .  A
C116       C1701   1.504       .  S
C117        C118   1.418   1_565  A
C117       C1693   1.490       .  S
C118       C1689   1.489       .  S
C119       C1702   1.499       .  S
C119        N137   1.366       .  A
C119        C156   1.453   1_455  S
N120        N137   1.335       .  A
N120        N142   1.323   1_455  A
N120       Co157   2.154   1_455  S
C121        N146   1.343       .  A
C121        C159   1.460       .  S
C121        H166   1.080       .  S
H122        C163   1.081       .  S
C123        N147   1.340       .  A
C123        C127   1.460       .  S
C123        H152   1.081       .  S
Co124       N142   2.067       .  S
Co124       N132   2.117       .  S
Co124       N164   2.096       .  S
Co124       N140   2.074       .  S
Co124      Cl168   2.427       .  S
N125        C163   1.333       .  A
N125        N132   1.316   1_455  A
N125       Co126   2.036       .  S
Co126       N129   2.087       .  S
Co126       N146   2.092   1_455  S
Co126       N133   2.034   1_455  S
Co126      Cl168   2.477   1_455  S
C127       C1673   1.473       .  S
C127        N165   1.348       .  A
N128        N135   1.323       .  A
N128        N158   1.323       .  A
N128       Co161   2.085       .  S
N129        N147   1.319       .  A
N129        N165   1.325       .  A
N130        C159   1.346       .  A
N130        N140   1.324       .  A
H131        C156   1.081       .  S
N132        N153   1.329   1_655  A
N133        N151   1.317   1_655  A
N133        N138   1.318       .  A
C134        N138   1.337       .  A
C134        C162   1.464   1_655  S
C134        C438   1.445       .  S
N135        C150   1.338       .  A
N135       Co157   2.068   1_455  S
C136        N164   1.333       .  A
C136        C139   1.466       .  S
C136        H170   1.082       .  S
C139        N160   1.352       .  A
C139       C1301   1.473       .  S
N140        N146   1.319       .  A
N141        C167   1.353       .  A
N141        N143   1.326   1_655  A
N141       Co157   2.149       .  S
N142        C156   1.339       .  A
N143        N171   1.324       .  A
N143       Co161   2.067       .  S
H144        C167   1.081       .  S
H145        C162   1.081       .  S
N147       Co161   2.080       .  S
N148        N160   1.328       .  A
N148        N164   1.320       .  A
N148       Co157   2.078       .  S
C149        N153   1.358       .  A
C149        C163   1.440       .  S
C149        C982   1.458       .  S
C150        C169   1.450       .  S
C150        H154   1.082       .  S
N151        C162   1.342       .  A
N151       Co161   2.099       .  S
C155       C1677   1.491       .  S
C155        N171   1.343   1_655  A
C155        C167   1.477       .  S
Co157      Cl168   2.471       .  S
N158        C169   1.346       .  A
C159       C1681   1.470       .  S
Co161      Cl168   2.433   1_455  S
C169        C284   1.453       .  S
C172       C1742   1.493       .  S
C172        N190   1.364       .  A
C172        C209   1.451   1_554  S
N173        N190   1.334       .  A
N173        N195   1.324   1_554  A
N173       Co210   2.150   1_554  S
C174        N199   1.338       .  A
C174        C212   1.451       .  S
C174        H219   1.082       .  S
H175        C216   1.081       .  S
C176        N200   1.336       .  A
C176        C180   1.455       .  S
C176        H205   1.082       .  S
Co177       N195   2.062       .  S
Co177       N185   2.103       .  S
Co177       N217   2.077       .  S
Co177       N193   2.086       .  S
Co177      Cl221   2.435       .  S
N178        C216   1.329       .  A
N178        N185   1.315   1_554  A
N178       Co179   2.019       .  S
Co179       N182   2.085       .  S
Co179       N199   2.075   1_554  S
Co179       N186   2.014   1_554  S
Co179      Cl221   2.458   1_554  S
C180       C1665   1.464       .  S
C180        N218   1.348       .  A
N181        N188   1.322       .  A
N181        N211   1.322       .  A
N181       Co214   2.084       .  S
N182        N200   1.318       .  A
N182        N218   1.324       .  A
N183        C212   1.352       .  A
N183        N193   1.327       .  A
H184        C209   1.081       .  S
N185        N206   1.325       .  A
N186        N204   1.317   1_556  A
N186        N191   1.316       .  A
C187        N191   1.331       .  A
C187        C215   1.461       .  S
C187        C373   1.436       .  S
N188        C203   1.340       .  A
N188       Co210   2.069   1_554  S
C189        N217   1.336       .  A
C189        C192   1.452       .  S
C189        H223   1.082       .  S
C192        N213   1.340       .  A
C192        C974   1.442       .  S
N193        N199   1.318       .  A
N194        C220   1.354       .  A
N194        N196   1.323   1_556  A
N194       Co210   2.147       .  S
N195        C209   1.336       .  A
N196        N224   1.321       .  A
N196       Co214   2.054       .  S
H197        C220   1.081       .  S
H198        C215   1.082   1_554  S
N200       Co214   2.061       .  S
N201        N213   1.320       .  A
N201        N217   1.323       .  A
N201       Co210   2.056       .  S
C202        N206   1.355   1_554  A
C202        C216   1.436       .  S
C202        C265   1.440       .  S
C203        C222   1.453       .  S
C203        H207   1.082       .  S
N204        C215   1.338   1_554  A
N204       Co214   2.090       .  S
C208       C1670   1.489       .  S
C208        N224   1.341   1_556  A
C208        C220   1.479       .  S
Co210      Cl221   2.460       .  S
N211        C222   1.346       .  A
C212       C1661   1.468       .  S
Co214      Cl221   2.434   1_554  S
C222        C626   1.454       .  S
C225        N243   1.327       .  A
C225        C262   1.460   1_655  S
N226        N243   1.313   1_455  A
N226        N248   1.316       .  A
N226       Co263   2.001       .  S
C227        N252   1.335       .  A
C227        C265   1.446       .  S
C227        H272   1.082       .  S
H228        C269   1.081       .  S
C229        N253   1.338       .  A
C229        C233   1.455       .  S
C229        H258   1.082       .  S
Co230       N248   2.086       .  S
Co230       N238   2.078       .  S
Co230       N270   2.084       .  S
Co230       N246   2.071       .  S
Co230      Cl274   2.443       .  S
N231        C269   1.349       .  A
N231        N238   1.324   1_655  A
N231       Co232   2.131   1_655  S
Co232       N235   2.058   1_455  S
Co232       N252   2.055       .  S
Co232       N239   2.135       .  S
Co232      Cl274   2.448       .  S
C233        N271   1.341       .  A
C233       C1116   1.450       .  S
N234        N241   1.320       .  A
N234        N264   1.327       .  A
N234       Co267   2.083       .  S
N235        N253   1.321       .  A
N235        N271   1.322       .  A
N236        C265   1.344       .  A
N236        N246   1.319       .  A
H237        C262   1.082       .  S
N238        N259   1.325       .  A
N239        N257   1.323   1_455  A
N239        N244   1.332       .  A
C240       C1649   1.491       .  S
C240        N244   1.361       .  A
C240        C268   1.454   1_455  S
N241        C256   1.343       .  A
N241       Co263   2.098   1_655  S
C242        N270   1.343       .  A
C242        C245   1.462       .  S
C242        H276   1.082       .  S
C245       C1657   1.482       .  S
C245        N266   1.351       .  A
N246        N252   1.320       .  A
N247        C273   1.325       .  A
N247        N249   1.315   1_455  A
N247       Co263   2.001       .  S
N248        C262   1.339       .  A
N249        N277   1.324   1_655  A
N249       Co267   2.100       .  S
H250        C273   1.081       .  S
H251        C268   1.081       .  S
N253       Co267   2.084       .  S
N254        N266   1.327       .  A
N254        N270   1.319       .  A
N254       Co263   2.102       .  S
C255       C1738   1.489       .  S
C255        N259   1.347   1_655  A
C255        C269   1.471       .  S
C256        C275   1.457       .  S
C256        H260   1.081       .  S
N257        C268   1.336       .  A
N257       Co267   2.067       .  S
C261        N277   1.354       .  A
C261        C273   1.427       .  S
C261       C1304   1.433       .  S
Co263      Cl274   2.455       .  S
N264        C275   1.350       .  A
Co267      Cl274   2.441   1_655  S
C275       C1653   1.476       .  S
C278        C279   1.416       .  A
C278        C283   1.414       .  A
C278       C1658   1.503       .  S
C279        C280   1.416       .  A
C279       C1666   1.486       .  S
C280        C281   1.409       .  A
C280       C1637   1.496       .  S
C281        C282   1.416       .  A
C281       C1633   1.494       .  S
C282        C283   1.417       .  A
C282       C1645   1.486       .  S
C283       C1641   1.488       .  S
C284        N302   1.337       .  A
C284        C321   1.467       .  S
N285        N302   1.319       .  A
N285        N307   1.317       .  A
N285       Co322   2.033       .  S
C286        N311   1.345       .  A
C286        C324   1.462       .  S
C286        H331   1.081       .  S
H287        C328   1.081       .  S
C288        N312   1.337       .  A
C288        C292   1.453       .  S
C288        H317   1.082       .  S
Co289       N307   2.110       .  S
Co289       N297   2.070       .  S
Co289       N329   2.070       .  S
Co289       N305   2.089       .  S
Co289      Cl333   2.420       .  S
N290        C328   1.349       .  A
N290        N297   1.323       .  A
N290       Co291   2.126       .  S
Co291       N294   2.068       .  S
Co291       N311   2.068       .  S
Co291       N298   2.128       .  S
Co291      Cl333   2.471       .  S
C292        N330   1.344       .  A
C292       C1228   1.451       .  S
N293        N300   1.320       .  A
N293        N323   1.325       .  A
N293       Co326   2.080       .  S
N294        N312   1.322       .  A
N294        N330   1.322       .  A
N295        C324   1.350       .  A
N295        N305   1.316       .  A
H296        C321   1.082       .  S
N297        N318   1.323       .  A
N298        N316   1.323       .  A
N298        N303   1.331       .  A
C299       C1621   1.484       .  S
C299        N303   1.359       .  A
C299        C327   1.453       .  S
N300        C315   1.340       .  A
N300       Co322   2.086       .  S
C301        N329   1.339       .  A
C301        C304   1.454       .  S
C301        H335   1.081       .  S
C304       C1646   1.469       .  S
C304        N325   1.350       .  A
N305        N311   1.318       .  A
N306        C332   1.328       .  A
N306        N308   1.317       .  A
N306       Co322   2.020       .  S
N307        C321   1.345       .  A
N308        N336   1.323       .  A
N308       Co326   2.090       .  S
H309        C332   1.081       .  S
H310        C327   1.081       .  S
N312       Co326   2.076       .  S
N313        N325   1.326       .  A
N313        N329   1.317       .  A
N313       Co322   2.091       .  S
C314       C1626   1.484       .  S
C314        N318   1.344       .  A
C314        C328   1.472       .  S
C315        C334   1.454       .  S
C315        H319   1.081       .  S
N316        C327   1.336       .  A
N316       Co326   2.069       .  S
C320        N336   1.351       .  A
C320        C332   1.434       .  S
C320        C685   1.436       .  S
Co322      Cl333   2.467       .  S
N323        C334   1.349       .  A
C324       C1344   1.464       .  S
Co326      Cl333   2.430       .  S
C334       C1629   1.466       .  S
C337        C338   1.413       .  A
C337        C342   1.413       .  A
C337       C1674   1.493       .  S
C338        C339   1.411       .  A
C338       C1630   1.492       .  S
C339        C340   1.410       .  A
C339       C1613   1.487       .  S
C340        C341   1.414       .  A
C340       C1617   1.486       .  S
C341        C342   1.415       .  A
C341       C1662   1.497       .  S
C342       C1609   1.489       .  S
C343       C1618   1.482       .  S
C343        N361   1.359       .  A
C343        C380   1.453       .  S
N344        N361   1.331       .  A
N344        N366   1.324       .  A
N344       Co381   2.120       .  S
C345        N370   1.344       .  A
C345        C383   1.459       .  S
C345        H390   1.081       .  S
H346        C387   1.081       .  S
C347        N371   1.343       .  A
C347        C351   1.459       .  S
C347        H376   1.081       .  S
Co348       N366   2.075       .  S
Co348       N356   2.099       .  S
Co348       N388   2.068       .  S
Co348       N364   2.084       .  S
Co348      Cl392   2.413       .  S
N349        C387   1.324       .  A
N349        N356   1.314       .  A
N349       Co350   1.997       .  S
Co350       N353   2.104       .  S
Co350       N370   2.099       .  S
Co350       N357   1.997       .  S
Co350      Cl392   2.470       .  S
C351       C1605   1.480       .  S
C351        N389   1.352       .  A
N352        N359   1.319       .  A
N352        N382   1.314       .  A
N352       Co385   2.068       .  S
N353        N371   1.317       .  A
N353        N389   1.327       .  A
N354        C383   1.350       .  A
N354        N364   1.329       .  A
H355        C380   1.080       .  S
N356        N377   1.325       .  A
N357        N375   1.315       .  A
N357        N362   1.312       .  A
C358        N362   1.327       .  A
C358        C386   1.464       .  S
C358       C1101   1.432       .  S
N359        C374   1.350       .  A
N359       Co381   2.094       .  S
C360        N388   1.328       .  A
C360        C363   1.457       .  S
C360        H394   1.083       .  S
C363        N384   1.355       .  A
C363       C1248   1.469       .  S
N364        N370   1.318       .  A
N365        C391   1.347       .  A
N365        N367   1.325       .  A
N365       Co381   2.112       .  S
N366        C380   1.334       .  A
N367        N395   1.320       .  A
N367       Co385   2.074       .  S
H368        C391   1.082       .  S
H369        C386   1.082       .  S
N371       Co385   2.075       .  S
N372        N384   1.329       .  A
N372        N388   1.319       .  A
N372       Co381   2.093       .  S
C373        N377   1.355       .  A
C373        C387   1.427       .  S
C374        C393   1.470       .  S
C374        H378   1.082       .  S
N375        C386   1.342       .  A
N375       Co385   2.093       .  S
C379       C1601   1.475       .  S
C379        N395   1.343       .  A
C379        C391   1.468       .  S
Co381      Cl392   2.478       .  S
N382        C393   1.344       .  A
C383       C1597   1.479       .  S
Co385      Cl392   2.412       .  S
C393        C768   1.467       .  S
C396        C397   1.418       .  A
C396        C401   1.414       .  A
C396       C1593   1.494       .  S
C397        C398   1.413       .  A
C397       C1726   1.489       .  S
C398        C399   1.410       .  A
C398       C1582   1.499       .  S
C399        C400   1.412       .  A
C399       C1578   1.492       .  S
C400        C401   1.408       .  A
C400       C1585   1.486       .  S
C401       C1589   1.490       .  S
C402        N420   1.339       .  A
C402        C439   1.456       .  S
N403        N420   1.318       .  A
N403        N425   1.320       .  A
N403       Co440   2.050       .  S
C404        N429   1.332       .  A
C404        C442   1.439       .  S
C404        H449   1.081       .  S
H405        C446   1.081       .  S
C406        N430   1.338       .  A
C406        C410   1.456       .  S
C406        H435   1.081       .  S
Co407       N425   2.080       .  S
Co407       N415   2.081       .  S
Co407       N447   2.061       .  S
Co407       N423   2.104       .  S
Co407      Cl451   2.439       .  S
N408        C446   1.340       .  A
N408        N415   1.319       .  A
N408       Co409   2.081       .  S
Co409       N412   2.028       .  S
Co409       N429   2.034       .  S
Co409       N416   2.081       .  S
Co409      Cl451   2.453       .  S
C410        N448   1.333       .  A
C410       C1027   1.433       .  S
N411        N418   1.323       .  A
N411        N441   1.323       .  A
N411       Co444   2.069       .  S
N412        N430   1.317       .  A
N412        N448   1.316       .  A
N413        C442   1.355       .  A
N413        N423   1.327       .  A
H414        C439   1.082       .  S
N415        N436   1.325       .  A
N416        N434   1.319       .  A
N416        N421   1.323       .  A
C417       C1573   1.463       .  S
C417        N421   1.346       .  A
C417        C445   1.457       .  S
N418        C433   1.350       .  A
N418       Co440   2.130       .  S
C419        N447   1.335       .  A
C419        C422   1.453       .  S
C419        H453   1.081       .  S
C422       C1569   1.485       .  S
C422        N443   1.360       .  A
N423        N429   1.315       .  A
N424        C450   1.336       .  A
N424        N426   1.319       .  A
N424       Co440   2.058       .  S
N425        C439   1.338       .  A
N426        N454   1.320       .  A
N426       Co444   2.072       .  S
H427        C450   1.081       .  S
H428        C445   1.082       .  S
N430       Co444   2.078       .  S
N431        N443   1.331       .  A
N431        N447   1.322       .  A
N431       Co440   2.133       .  S
C432       C1594   1.468       .  S
C432        N436   1.349       .  A
C432        C446   1.453       .  S
C433        C452   1.473       .  S
C433        H437   1.081       .  S
N434        C445   1.337       .  A
N434       Co444   2.070       .  S
C438        N454   1.345       .  A
C438        C450   1.450       .  S
Co440      Cl451   2.447       .  S
N441        C452   1.345       .  A
C442       C1106   1.450       .  S
Co444      Cl451   2.440       .  S
C452       C1566   1.487       .  S
C455        N473   1.329       .  A
C455        C492   1.460       .  S
N456        N473   1.315       .  A
N456        N478   1.316   1_655  A
N456       Co493   2.001   1_655  S
C457        N482   1.341       .  A
C457        C495   1.456       .  S
C457        H502   1.081       .  S
H458        C499   1.082       .  S
C459        N483   1.329       .  A
C459        C463   1.458       .  S
C459        H488   1.082       .  S
Co460       N478   2.087       .  S
Co460       N468   2.066       .  S
Co460       N500   2.078       .  S
Co460       N476   2.078       .  S
Co460      Cl504   2.426   1_455  S
N461        C499   1.352       .  A
N461        N468   1.324   1_655  A
N461       Co462   2.134       .  S
Co462       N465   2.090       .  S
Co462       N482   2.083   1_655  S
Co462       N469   2.127   1_655  S
Co462      Cl504   2.472       .  S
C463        N501   1.355       .  A
C463       C1035   1.472       .  S
N464        N471   1.318       .  A
N464        N494   1.330       .  A
N464       Co497   2.085       .  S
N465        N483   1.319       .  A
N465        N501   1.328       .  A
N466        C495   1.345       .  A
N466        N476   1.322       .  A
H467        C492   1.082   1_455  S
N468        N489   1.320       .  A
N469        N487   1.323   1_455  A
N469        N474   1.332       .  A
C470       C1553   1.490       .  S
C470        N474   1.360       .  A
C470        C498   1.456   1_455  S
N471        C486   1.344       .  A
N471       Co493   2.103   1_655  S
C472        N500   1.342       .  A
C472        C475   1.460       .  S
C472        H506   1.082       .  S
C475       C1561   1.480       .  S
C475        N496   1.352       .  A
N476        N482   1.321       .  A
N477        C503   1.328       .  A
N477        N479   1.315   1_455  A
N477       Co493   2.005       .  S
N478        C492   1.335   1_455  A
N479        N507   1.324       .  A
N479       Co497   2.101       .  S
H480        C503   1.081       .  S
H481        C498   1.081       .  S
N483       Co497   2.072       .  S
N484        N496   1.327       .  A
N484        N500   1.319       .  A
N484       Co493   2.105       .  S
C485       C1697   1.486       .  S
C485        N489   1.342   1_655  A
C485        C499   1.476       .  S
C486        C505   1.460       .  S
C486        H490   1.081       .  S
N487        C498   1.337       .  A
N487       Co497   2.082       .  S
C491        N507   1.354   1_455  A
C491        C503   1.431       .  S
C491       C1340   1.438       .  S
Co493      Cl504   2.469   1_455  S
N494        C505   1.351       .  A
C495        C880   1.457       .  S
Co497      Cl504   2.420       .  S
C505       C1557   1.483       .  S
C508        C509   1.414       .  A
C508        C513   1.413       .  A
C508       C1538   1.482       .  S
C509        C510   1.413       .  A
C509       C1562   1.501       .  S
C510        C511   1.415       .  A
C510       C1533   1.483       .  S
C511        C512   1.414       .  A
C511       C1550   1.488       .  S
C512        C513   1.409       .  A
C512       C1541   1.488       .  S
C513       C1545   1.494       .  S
C514        N532   1.334       .  A
C514        C551   1.466   1_556  S
N515        N532   1.317       .  A
N515        N537   1.316   1_556  A
N515       Co552   2.025   1_556  S
C516        N541   1.347       .  A
C516        C554   1.467       .  S
C516        H561   1.081       .  S
H517        C558   1.081       .  S
C518        N542   1.338       .  A
C518        C522   1.454       .  S
C518        H547   1.082       .  S
Co519       N537   2.102       .  S
Co519       N527   2.070       .  S
Co519       N559   2.069       .  S
Co519       N535   2.077       .  S
Co519      Cl563   2.421       .  S
N520        C558   1.352       .  A
N520        N527   1.324   1_556  A
N520       Co521   2.138   1_556  S
Co521       N524   2.080   1_554  S
Co521       N541   2.083       .  S
Co521       N528   2.145       .  S
Co521      Cl563   2.472       .  S
C522        N560   1.346       .  A
C522       C1213   1.455       .  S
N523        N530   1.320       .  A
N523        N553   1.324       .  A
N523       Co556   2.080       .  S
N524        N542   1.323       .  A
N524        N560   1.323       .  A
N525        C554   1.347       .  A
N525        N535   1.315       .  A
H526        C551   1.081       .  S
N527        N548   1.324       .  A
N528        N546   1.324   1_554  A
N528        N533   1.334       .  A
C529       C1525   1.492       .  S
C529        N533   1.364       .  A
C529        C557   1.451   1_554  S
N530        C545   1.340       .  A
N530       Co552   2.083   1_556  S
C531        N559   1.340       .  A
C531        C534   1.455       .  S
C531        H565   1.081       .  S
C534       C1549   1.468       .  S
C534        N555   1.349       .  A
N535        N541   1.318       .  A
N536        C562   1.327       .  A
N536        N538   1.316   1_554  A
N536       Co552   2.010       .  S
N537        C551   1.344       .  A
N538        N566   1.324   1_556  A
N538       Co556   2.095       .  S
H539        C562   1.080       .  S
H540        C557   1.082       .  S
N542       Co556   2.079       .  S
N543        N555   1.325       .  A
N543        N559   1.316       .  A
N543       Co552   2.085       .  S
C544       C1522   1.490       .  S
C544        N548   1.344   1_556  A
C544        C558   1.476       .  S
C545        C564   1.455       .  S
C545        H549   1.081       .  S
N546        C557   1.336       .  A
N546       Co556   2.066       .  S
C550        N566   1.353       .  A
C550        C562   1.429       .  S
C550        C797   1.434       .  S
Co552      Cl563   2.464       .  S
N553        C564   1.348       .  A
C554       C1312   1.468       .  S
Co556      Cl563   2.431   1_556  S
C564       C1529   1.467       .  S
C567        C568   1.409       .  A
C567        C572   1.413       .  A
C567       C1505   1.493       .  S
C568        C569   1.410       .  A
C568       C1510   1.487       .  S
C569        C570   1.410       .  A
C569       C1718   1.487       .  S
C570        C571   1.412       .  A
C570       C1530   1.494       .  S
C571        C572   1.412       .  A
C571       C1513   1.490       .  S
C572       C1517   1.489       .  S
C573        N591   1.350       .  A
C573        C610   1.468       .  S
C573       C1067   1.470       .  S
N574        N591   1.327       .  A
N574        N596   1.319       .  A
N574       Co611   2.073       .  S
C575        N600   1.335       .  A
C575        C613   1.444       .  S
C575        H620   1.082       .  S
H576        C617   1.081       .  S
C577        N601   1.343       .  A
C577        C581   1.463       .  S
C577        H606   1.082       .  S
Co578       N596   2.094       .  S
Co578       N586   2.072       .  S
Co578       N618   2.062       .  S
Co578       N594   2.110       .  S
Co578      Cl622   2.427       .  S
N579        C617   1.341       .  A
N579        N586   1.319       .  A
N579       Co580   2.083       .  S
Co580       N583   2.049       .  S
Co580       N600   2.051       .  S
Co580       N587   2.081       .  S
Co580      Cl622   2.472       .  S
C581        N619   1.339       .  A
C581        C753   1.452       .  S
N582        N589   1.324       .  A
N582        N612   1.323       .  A
N582       Co615   2.069       .  S
N583        N601   1.319       .  A
N583        N619   1.320       .  A
N584        C613   1.356       .  A
N584        N594   1.328       .  A
H585        C610   1.082       .  S
N586        N607   1.323       .  A
N587        N605   1.320       .  A
N587        N592   1.324       .  A
C588       C1518   1.467       .  S
C588        N592   1.347       .  A
C588        C616   1.457       .  S
N589        C604   1.350       .  A
N589       Co611   2.128       .  S
C590        N618   1.336       .  A
C590        C593   1.452       .  S
C590        H624   1.081       .  S
C593       C1497   1.487       .  S
C593        N614   1.361       .  A
N594        N600   1.317       .  A
N595        C621   1.340       .  A
N595        N597   1.322       .  A
N595       Co611   2.074       .  S
N596        C610   1.334       .  A
N597        N625   1.324       .  A
N597       Co615   2.092       .  S
H598        C621   1.082       .  S
H599        C616   1.082       .  S
N601       Co615   2.100       .  S
N602        N614   1.331       .  A
N602        N618   1.322       .  A
N602       Co611   2.131       .  S
C603       C1586   1.464       .  S
C603        N607   1.346       .  A
C603        C617   1.455       .  S
C604        C623   1.472       .  S
C604        H608   1.081       .  S
N605        C616   1.338       .  A
N605       Co615   2.076       .  S
C609        N625   1.349       .  A
C609        C621   1.454       .  S
C609        C865   1.460       .  S
Co611      Cl622   2.470       .  S
N612        C623   1.344       .  A
C613       C1218   1.459       .  S
Co615      Cl622   2.435       .  S
C623       C1501   1.484       .  S
C626        N644   1.338       .  A
C626        C663   1.467   1_565  S
N627        N644   1.319       .  A
N627        N649   1.318   1_565  A
N627       Co664   2.042   1_565  S
C628        N653   1.347       .  A
C628        C666   1.465       .  S
C628        H673   1.082       .  S
H629        C670   1.082       .  S
C630        N654   1.333       .  A
C630        C634   1.467       .  S
C630        H659   1.083       .  S
Co631       N649   2.108       .  S
Co631       N639   2.078       .  S
Co631       N671   2.072       .  S
Co631       N647   2.091       .  S
Co631      Cl675   2.421   1_545  S
N632        C670   1.350       .  A
N632        N639   1.325   1_565  A
N632       Co633   2.134       .  S
Co633       N636   2.078       .  S
Co633       N653   2.076   1_565  S
Co633       N640   2.143   1_565  S
Co633      Cl675   2.481       .  S
C634        N672   1.352       .  A
C634        C725   1.471       .  S
N635        N642   1.319       .  A
N635        N665   1.326       .  A
N635       Co668   2.076       .  S
N636        N654   1.320       .  A
N636        N672   1.328       .  A
N637        C666   1.350       .  A
N637        N647   1.316       .  A
H638        C663   1.082       .  S
N639        N660   1.326       .  A
N640        N658   1.322   1_545  A
N640        N645   1.333       .  A
C641       C1493   1.493       .  S
C641        N645   1.363       .  A
C641        C669   1.453   1_545  S
N642        C657   1.343       .  A
N642       Co664   2.094   1_565  S
C643        N671   1.339       .  A
C643        C646   1.455       .  S
C643        H677   1.081       .  S
C646       C1546   1.473       .  S
C646        N667   1.352       .  A
N647        N653   1.319       .  A
N648        C674   1.334       .  A
N648        N650   1.317   1_545  A
N648       Co664   2.039       .  S
N649        C663   1.345       .  A
N650        N678   1.329   1_565  A
N650       Co668   2.117       .  S
H651        C674   1.081       .  S
H652        C669   1.081       .  S
N654       Co668   2.096       .  S
N655        N667   1.327       .  A
N655        N671   1.318       .  A
N655       Co664   2.095       .  S
C656       C1489   1.491       .  S
C656        N660   1.346   1_565  A
C656        C670   1.473       .  S
C657        C676   1.459       .  S
C657        H661   1.081       .  S
N658        C669   1.338       .  A
N658       Co668   2.068       .  S
C662        N678   1.358       .  A
C662        C674   1.440       .  S
C662        C900   1.459       .  S
Co664      Cl675   2.480   1_545  S
N665        C676   1.347       .  A
C666        C837   1.467       .  S
Co668      Cl675   2.422       .  S
C676       C1638   1.471       .  S
C679        C680   1.415       .  A
C679        C684   1.415       .  A
C679       C1502   1.490       .  S
C680        C681   1.416       .  A
C680       C1477   1.492       .  S
C681        C682   1.421   1_545  A
C681       C1494   1.498   1_545  S
C682        C683   1.423       .  A
C682       C1485   1.495       .  S
C683        C684   1.421   1_565  A
C683       C1473   1.508       .  S
C684       C1481   1.491       .  S
C685        N703   1.335       .  A
C685        C722   1.456       .  S
N686        N703   1.317       .  A
N686        N708   1.316       .  A
N686       Co723   2.025       .  S
C687        N712   1.350       .  A
C687        C725   1.470       .  S
C687        H732   1.082       .  S
H688        C729   1.081       .  S
C689        N713   1.341       .  A
C689        C693   1.455       .  S
C689        H718   1.082       .  S
Co690       N708   2.075       .  S
Co690       N698   2.080       .  S
Co690       N730   2.066       .  S
Co690       N706   2.062       .  S
Co690      Cl734   2.420       .  S
N691        C729   1.349       .  A
N691        N698   1.324       .  A
N691       Co692   2.121       .  S
Co692       N695   2.081       .  S
Co692       N712   2.093       .  S
Co692       N699   2.131       .  S
Co692      Cl734   2.476       .  S
C693        N731   1.346       .  A
C693        C939   1.462       .  S
N694        N701   1.321       .  A
N694        N724   1.329       .  A
N694       Co727   2.096       .  S
N695        N713   1.323       .  A
N695        N731   1.326       .  A
N696        C725   1.342       .  A
N696        N706   1.315       .  A
H697        C722   1.082       .  S
N698        N719   1.324       .  A
N699        N717   1.325       .  A
N699        N704   1.331       .  A
C700       C1469   1.481       .  S
C700        N704   1.360       .  A
C700        C728   1.451       .  S
N701        C716   1.342       .  A
N701       Co723   2.097       .  S
C702        N730   1.339       .  A
C702        C705   1.453       .  S
C702        H736   1.082       .  S
C705       C1486   1.477       .  S
C705        N726   1.355       .  A
N706        N712   1.318       .  A
N707        C733   1.330       .  A
N707        N709   1.315       .  A
N707       Co723   2.023       .  S
N708        C722   1.337       .  A
N709        N737   1.327       .  A
N709       Co727   2.111       .  S
H710        C733   1.081       .  S
H711        C728   1.080       .  S
N713       Co727   2.087       .  S
N714        N726   1.328       .  A
N714        N730   1.318       .  A
N714       Co723   2.109       .  S
C715       C1634   1.486       .  S
C715        N719   1.346       .  A
C715        C729   1.471       .  S
C716        C735   1.457       .  S
C716        H720   1.081       .  S
N717        C728   1.333       .  A
N717       Co727   2.067       .  S
C721        N737   1.357       .  A
C721        C733   1.439       .  S
C721       C1271   1.449       .  S
Co723      Cl734   2.467       .  S
N724        C735   1.353       .  A
Co727      Cl734   2.431       .  S
C735       C1465   1.480       .  S
C738       C1457   1.472       .  S
C738        N756   1.351       .  A
C738        C775   1.456       .  S
N739        N756   1.326       .  A
N739        N761   1.317       .  A
N739       Co776   2.091       .  S
C740        N765   1.350       .  A
C740        C778   1.473       .  S
C740        H785   1.082       .  S
H741        C782   1.081       .  S
C742        N766   1.335       .  A
C742        C746   1.452   1_545  S
C742        H771   1.081       .  S
Co743       N761   2.070       .  S
Co743       N751   2.087       .  S
Co743       N783   2.108       .  S
Co743       N759   2.070       .  S
Co743      Cl787   2.422       .  S
N744        C782   1.347       .  A
N744        N751   1.318       .  A
N744       Co745   2.076   1_565  S
Co745       N748   2.134   1_545  S
Co745       N765   2.127       .  S
Co745       N752   2.070       .  S
Co745      Cl787   2.470   1_545  S
C746       C1482   1.487       .  S
C746        N784   1.361       .  A
N747        N754   1.317   1_545  A
N747        N777   1.325       .  A
N747       Co780   2.099       .  S
N748        N766   1.323   1_565  A
N748        N784   1.332       .  A
N749        C778   1.344   1_565  A
N749        N759   1.323       .  A
H750        C775   1.081       .  S
N751        N772   1.316       .  A
N752        N770   1.322       .  A
N752        N757   1.322       .  A
C753        N757   1.344       .  A
C753        C781   1.456       .  S
N754        C769   1.327       .  A
N754       Co776   2.016       .  S
C755        N783   1.346       .  A
C755        C758   1.469   1_565  S
C755        H789   1.082       .  S
C758        N779   1.335       .  A
C758       C1153   1.450       .  S
N759        N765   1.323   1_565  A
N760        C786   1.341       .  A
N760        N762   1.320       .  A
N760       Co776   2.089   1_545  S
N761        C775   1.340       .  A
N762        N790   1.324       .  A
N762       Co780   2.074       .  S
H763        C786   1.081       .  S
H764        C781   1.082       .  S
N766       Co780   2.063       .  S
N767        N779   1.317       .  A
N767        N783   1.317   1_545  A
N767       Co776   2.028   1_545  S
C768        N772   1.349       .  A
C768        C782   1.466       .  S
C769        C788   1.432       .  S
C769        H773   1.081       .  S
N770        C781   1.339       .  A
N770       Co780   2.083       .  S
C774       C1577   1.467       .  S
C774        N790   1.347       .  A
C774        C786   1.456       .  S
Co776      Cl787   2.463       .  S
N777        C788   1.353   1_545  A
C778       C1462   1.486       .  S
Co780      Cl787   2.433   1_545  S
C788       C1266   1.438       .  S
C791        C792   1.416   1_545  A
C791        C796   1.421       .  A
C791       C1490   1.500       .  S
C792        C793   1.420   1_554  A
C792       C1669   1.494       .  S
C793        C794   1.418       .  A
C793       C1606   1.496       .  S
C794        C795   1.414   1_565  A
C794       C1461   1.494       .  S
C795        C796   1.420   1_556  A
C795       C1450   1.497       .  S
C796       C1453   1.491       .  S
C797        N815   1.331       .  A
C797        C834   1.460       .  S
N798        N815   1.315       .  A
N798        N820   1.316       .  A
N798       Co835   2.012       .  S
C799        N824   1.349       .  A
C799        C837   1.470       .  S
C799        H844   1.082       .  S
H800        C841   1.081       .  S
C801        N825   1.335       .  A
C801        C805   1.451       .  S
C801        H830   1.082       .  S
Co802       N820   2.085       .  S
Co802       N810   2.076       .  S
Co802       N842   2.066       .  S
Co802       N818   2.067       .  S
Co802      Cl846   2.421       .  S
N803        C841   1.348       .  A
N803        N810   1.323       .  A
N803       Co804   2.117       .  S
Co804       N807   2.076       .  S
Co804       N824   2.092       .  S
Co804       N811   2.125       .  S
Co804      Cl846   2.468       .  S
C805        N843   1.346       .  A
C805        C924   1.451       .  S
N806        N813   1.319       .  A
N806        N836   1.327       .  A
N806       Co839   2.086       .  S
N807        N825   1.321       .  A
N807        N843   1.323       .  A
N808        C837   1.344       .  A
N808        N818   1.314       .  A
H809        C834   1.082       .  S
N810        N831   1.323       .  A
N811        N829   1.325       .  A
N811        N816   1.330       .  A
C812       C1445   1.478       .  S
C812        N816   1.359       .  A
C812        C840   1.450       .  S
N813        C828   1.342       .  A
N813       Co835   2.094       .  S
C814        N842   1.339       .  A
C814        C817   1.454       .  S
C814        H848   1.081       .  S
C817       C1454   1.471       .  S
C817        N838   1.352       .  A
N818        N824   1.317       .  A
N819        C845   1.327       .  A
N819        N821   1.315       .  A
N819       Co835   2.011       .  S
N820        C834   1.338       .  A
N821        N849   1.323       .  A
N821       Co839   2.088       .  S
H822        C845   1.081       .  S
H823        C840   1.082       .  S
N825       Co839   2.067       .  S
N826        N838   1.326       .  A
N826        N842   1.317       .  A
N826       Co835   2.097       .  S
C827       C1542   1.481       .  S
C827        N831   1.345       .  A
C827        C841   1.469       .  S
C828        C847   1.457       .  S
C828        H832   1.081       .  S
N829        C840   1.333       .  A
N829       Co839   2.065       .  S
C833        N849   1.351       .  A
C833        C845   1.433       .  S
C833       C1181   1.434       .  S
Co835      Cl846   2.457       .  S
N836        C847   1.352       .  A
Co839      Cl846   2.431       .  S
C847       C1441   1.478       .  S
C850       C1690   1.486       .  S
C850        N868   1.361       .  A
C850        C887   1.452       .  S
N851        N868   1.332       .  A
N851        N873   1.323       .  A
N851       Co888   2.135       .  S
C852        N877   1.338       .  A
C852        C890   1.451       .  S
C852        H897   1.081       .  S
H853        C894   1.081       .  S
C854        N878   1.336       .  A
C854        C858   1.455       .  S
C854        H883   1.082       .  S
Co855       N873   2.066       .  S
Co855       N863   2.101       .  S
Co855       N895   2.080       .  S
Co855       N871   2.087       .  S
Co855      Cl899   2.440       .  S
N856        C894   1.337       .  A
N856        N863   1.316       .  A
N856       Co857   2.055       .  S
Co857       N860   2.074       .  S
Co857       N877   2.075       .  S
Co857       N864   2.052       .  S
Co857      Cl899   2.462       .  S
C858       C1537   1.458       .  S
C858        N896   1.345       .  A
N859        N866   1.322       .  A
N859        N889   1.325       .  A
N859       Co892   2.097       .  S
N860        N878   1.320       .  A
N860        N896   1.322       .  A
N861        C890   1.351       .  A
N861        N871   1.326       .  A
H862        C887   1.081       .  S
N863        N884   1.327       .  A
N864        N882   1.318       .  A
N864        N869   1.322       .  A
C865        N869   1.341       .  A
C865        C893   1.465       .  S
N866        C881   1.339       .  A
N866       Co888   2.062       .  S
C867        N895   1.338       .  A
C867        C870   1.454       .  S
C867        H901   1.081       .  S
C870        N891   1.341       .  A
C870       C1010   1.447       .  S
N871        N877   1.319       .  A
N872        C898   1.351       .  A
N872        N874   1.323       .  A
N872       Co888   2.136       .  S
N873        C887   1.335       .  A
N874        N902   1.322       .  A
N874       Co892   2.059       .  S
H875        C898   1.080       .  S
H876        C893   1.082       .  S
N878       Co892   2.068       .  S
N879        N891   1.321       .  A
N879        N895   1.322       .  A
N879       Co888   2.058       .  S
C880        N884   1.354       .  A
C880        C894   1.447       .  S
C881        C900   1.449       .  S
C881        H885   1.082       .  S
N882        C893   1.345       .  A
N882       Co892   2.105       .  S
C886       C1478   1.486       .  S
C886        N902   1.343       .  A
C886        C898   1.475       .  S
Co888      Cl899   2.458       .  S
N889        C900   1.349       .  A
C890       C1506   1.467       .  S
Co892      Cl899   2.441       .  S
C903        C904   1.410       .  A
C903        C908   1.415       .  A
C903       C1706   1.490       .  S
C904        C905   1.413       .  A
C904       C1429   1.485       .  S
C905        C906   1.414       .  A
C905       C1470   1.483       .  S
C906        C907   1.418       .  A
C906       C1437   1.499       .  S
C907        C908   1.420       .  A
C907       C1434   1.488       .  S
C908       C1654   1.501       .  S
C909       C1438   1.494       .  S
C909        N927   1.364       .  A
C909        C946   1.453       .  S
N910        N927   1.334       .  A
N910        N932   1.323       .  A
N910       Co947   2.144       .  S
C911        N936   1.342       .  A
C911        C949   1.457       .  S
C911        H956   1.081       .  S
H912        C953   1.081       .  S
C913        N937   1.340       .  A
C913        C917   1.461       .  S
C913        H942   1.081       .  S
Co914       N932   2.070       .  S
Co914       N922   2.112       .  S
Co914       N954   2.081       .  S
Co914       N930   2.080       .  S
Co914      Cl958   2.427       .  S
N915        C953   1.335       .  A
N915        N922   1.316       .  A
N915       Co916   2.047       .  S
Co916       N919   2.085       .  S
Co916       N936   2.089       .  S
Co916       N923   2.040       .  S
Co916      Cl958   2.472       .  S
C917       C1422   1.474       .  S
C917        N955   1.348       .  A
N918        N925   1.324       .  A
N918        N948   1.324       .  A
N918       Co951   2.087       .  S
N919        N937   1.320       .  A
N919        N955   1.325       .  A
N920        C949   1.349       .  A
N920        N930   1.327       .  A
H921        C946   1.081       .  S
N922        N943   1.329       .  A
N923        N941   1.317       .  A
N923        N928   1.319       .  A
C924        N928   1.338       .  A
C924        C952   1.466       .  S
N925        C940   1.340       .  A
N925       Co947   2.073       .  S
C926        N954   1.331       .  A
C926        C929   1.461       .  S
C926        H960   1.082       .  S
C929        N950   1.352       .  A
C929       C1136   1.469       .  S
N930        N936   1.319       .  A
N931        C957   1.350       .  A
N931        N933   1.326       .  A
N931       Co947   2.134       .  S
N932        C946   1.337       .  A
N933        N961   1.323       .  A
N933       Co951   2.071       .  S
H934        C957   1.081       .  S
H935        C952   1.081       .  S
N937       Co951   2.087       .  S
N938        N950   1.328       .  A
N938        N954   1.319       .  A
N938       Co947   2.080       .  S
C939        N943   1.358       .  A
C939        C953   1.445       .  S
C940        C959   1.450       .  S
C940        H944   1.082       .  S
N941        C952   1.344       .  A
N941       Co951   2.102       .  S
C945       C1425   1.486       .  S
C945        N961   1.344       .  A
C945        C957   1.473       .  S
Co947      Cl958   2.475       .  S
N948        C959   1.347       .  A
C949       C1417   1.472       .  S
Co951      Cl958   2.435       .  S
C959       C1063   1.456       .  S
C962        C963   1.421       .  A
C962        C967   1.419       .  A
C962       C1558   1.504       .  S
C963        C964   1.418       .  A
C963       C1710   1.493       .  S
C964        C965   1.415       .  A
C964       C1409   1.494       .  S
C965        C966   1.407       .  A
C965       C1446   1.482       .  S
C966        C967   1.412       .  A
C966       C1426   1.494       .  S
C967       C1413   1.478       .  S
C968        C969   1.415       .  A
C968        C973   1.415       .  A
C968       C1458   1.490       .  S
C969        C970   1.411       .  A
C969       C1401   1.493       .  S
C970        C971   1.415       .  A
C970       C1682   1.493       .  S
C971        C972   1.411       .  A
C971       C1574   1.486       .  S
C972        C973   1.412       .  A
C972       C1406   1.501       .  S
C973       C1602   1.481       .  S
C974        N992   1.334       .  A
C974       C1011   1.465   1_565  S
N975        N992   1.316       .  A
N975        N997   1.316   1_565  A
N975      Co1012   2.026   1_565  S
C976       N1001   1.340       .  A
C976       C1014   1.452       .  S
C976       H1021   1.082       .  S
H977       C1018   1.082       .  S
C978       N1002   1.341       .  A
C978        C982   1.457       .  S
C978       H1007   1.081       .  S
Co979       N997   2.096       .  S
Co979       N987   2.064       .  S
Co979      N1019   2.075       .  S
Co979       N995   2.081       .  S
Co979     Cl1023   2.435       .  S
N980       C1018   1.352       .  A
N980        N987   1.325   1_565  A
N980       Co981   2.141       .  S
Co981       N984   2.066       .  S
Co981      N1001   2.067   1_565  S
Co981       N988   2.143   1_565  S
Co981     Cl1023   2.461   1_565  S
C982       N1020   1.343       .  A
N983        N990   1.320       .  A
N983       N1013   1.323       .  A
N983      Co1016   2.073       .  S
N984       N1002   1.323       .  A
N984       N1020   1.323       .  A
N985       C1014   1.345       .  A
N985        N995   1.321       .  A
H986       C1011   1.081       .  S
N987       N1008   1.322       .  A
N988       N1006   1.323   1_545  A
N988        N993   1.332       .  A
C989       C1694   1.488       .  S
C989        N993   1.363       .  A
C989       C1017   1.451   1_545  S
N990       C1005   1.340       .  A
N990      Co1012   2.085   1_565  S
C991       N1019   1.339       .  A
C991        C994   1.457       .  S
C991       H1025   1.081       .  S
C994       C1509   1.466       .  S
C994       N1015   1.347       .  A
N995       N1001   1.322       .  A
N996       C1022   1.331       .  A
N996        N998   1.315   1_545  A
N996      Co1012   2.025       .  S
N997       C1011   1.343       .  A
N998       N1026   1.326   1_565  A
N998      Co1016   2.105       .  S
H999       C1022   1.081       .  S
H1000      C1017   1.081       .  S
N1002     Co1016   2.093       .  S
N1003      N1015   1.324       .  A
N1003      N1019   1.319       .  A
N1003     Co1012   2.083       .  S
C1004      C1733   1.488       .  S
C1004      N1008   1.343   1_565  A
C1004      C1018   1.476       .  S
C1005      C1024   1.455       .  S
C1005      H1009   1.081       .  S
N1006      C1017   1.334       .  A
N1006     Co1016   2.056       .  S
C1010      N1026   1.355       .  A
C1010      C1022   1.438       .  S
Co1012    Cl1023   2.468       .  S
N1013      C1024   1.347       .  A
Co1016    Cl1023   2.434   1_565  S
C1024      C1610   1.464       .  S
C1027      N1045   1.333       .  A
C1027      C1064   1.456       .  S
N1028      N1045   1.316       .  A
N1028      N1050   1.316       .  A
N1028     Co1065   2.024       .  S
C1029      N1054   1.350       .  A
C1029      C1067   1.471       .  S
C1029      H1074   1.081       .  S
H1030      C1071   1.082       .  S
C1031      N1055   1.332       .  A
C1031      C1035   1.464       .  S
C1031      H1060   1.082       .  S
Co1032     N1050   2.074       .  S
Co1032     N1040   2.080       .  S
Co1032     N1072   2.068       .  S
Co1032     N1048   2.058       .  S
Co1032    Cl1076   2.415       .  S
N1033      C1071   1.347       .  A
N1033      N1040   1.323       .  A
N1033     Co1034   2.109       .  S
Co1034     N1037   2.083       .  S
Co1034     N1054   2.098       .  S
Co1034     N1041   2.120       .  S
Co1034    Cl1076   2.483       .  S
C1035      N1073   1.353       .  A
N1036      N1043   1.319       .  A
N1036      N1066   1.329       .  A
N1036     Co1069   2.084       .  S
N1037      N1055   1.319       .  A
N1037      N1073   1.328       .  A
N1038      C1067   1.341       .  A
N1038      N1048   1.314       .  A
H1039      C1064   1.081       .  S
N1040      N1061   1.323       .  A
N1041      N1059   1.324       .  A
N1041      N1046   1.329       .  A
C1042      C1414   1.476       .  S
C1042      N1046   1.358       .  A
C1042      C1070   1.450       .  S
N1043      C1058   1.344       .  A
N1043     Co1065   2.102       .  S
C1044      N1072   1.339       .  A
C1044      C1047   1.453       .  S
C1044      H1078   1.081       .  S
C1047      C1393   1.478       .  S
C1047      N1068   1.356       .  A
N1048      N1054   1.319       .  A
N1049      C1075   1.332       .  A
N1049      N1051   1.316       .  A
N1049     Co1065   2.032       .  S
N1050      C1064   1.338       .  A
N1051      N1079   1.329       .  A
N1051     Co1069   2.116       .  S
H1052      C1075   1.081       .  S
H1053      C1070   1.081       .  S
N1055     Co1069   2.085       .  S
N1056      N1068   1.329       .  A
N1056      N1072   1.318       .  A
N1056     Co1065   2.110       .  S
C1057      C1590   1.481       .  S
C1057      N1061   1.346       .  A
C1057      C1071   1.468       .  S
C1058      C1077   1.460       .  S
C1058      H1062   1.081       .  S
N1059      C1070   1.332       .  A
N1059     Co1069   2.065       .  S
C1063      N1079   1.358       .  A
C1063      C1075   1.440       .  S
Co1065    Cl1076   2.468       .  S
N1066      C1077   1.351       .  A
Co1069    Cl1076   2.418       .  S
C1077      C1397   1.481       .  S
C1080      C1081   1.417       .  A
C1080      C1085   1.421       .  A
C1080      C1625   1.492       .  S
C1081      C1082   1.415   1_455  A
C1081      C1678   1.496       .  S
C1082      C1083   1.422       .  A
C1082      C1565   1.493       .  S
C1083      C1084   1.420       .  A
C1083      C1398   1.503       .  S
C1084      C1085   1.421   1_655  A
C1084      C1554   1.493       .  S
C1085      C1390   1.504       .  S
C1086      C1381   1.490       .  S
C1086      N1104   1.363       .  A
C1086      C1123   1.451   1_554  S
N1087      N1104   1.333       .  A
N1087      N1109   1.325   1_554  A
N1087     Co1124   2.148       .  S
C1088      N1113   1.341       .  A
C1088      C1126   1.453       .  S
C1088      H1133   1.082       .  S
H1089      C1130   1.082       .  S
C1090      N1114   1.336       .  A
C1090      C1094   1.452       .  S
C1090      H1119   1.081       .  S
Co1091     N1109   2.064       .  S
Co1091     N1099   2.117       .  S
Co1091     N1131   2.087       .  S
Co1091     N1107   2.099       .  S
Co1091    Cl1135   2.431   1_556  S
N1092      C1130   1.331       .  A
N1092      N1099   1.315   1_554  A
N1092     Co1093   2.021       .  S
Co1093     N1096   2.091       .  S
Co1093     N1113   2.086   1_554  S
Co1093     N1100   2.012   1_554  S
Co1093    Cl1135   2.468       .  S
C1094      C1433   1.467       .  S
C1094      N1132   1.351       .  A
N1095      N1102   1.319       .  A
N1095      N1125   1.315       .  A
N1095     Co1128   2.074       .  S
N1096      N1114   1.318       .  A
N1096      N1132   1.326       .  A
N1097      C1126   1.354       .  A
N1097      N1107   1.329       .  A
H1098      C1123   1.081       .  S
N1099      N1120   1.327   1_556  A
N1100      N1118   1.317   1_556  A
N1100      N1105   1.315       .  A
C1101      N1105   1.328       .  A
C1101      C1129   1.461       .  S
N1102      C1117   1.348       .  A
N1102     Co1124   2.084       .  S
C1103      N1131   1.339       .  A
C1103      C1106   1.455       .  S
C1103      H1137   1.082       .  S
C1106      N1127   1.341       .  A
N1107      N1113   1.319       .  A
N1108      C1134   1.353       .  A
N1108      N1110   1.324   1_556  A
N1108     Co1124   2.142   1_556  S
N1109      C1123   1.335       .  A
N1110      N1138   1.327       .  A
N1110     Co1128   2.083       .  S
H1111      C1134   1.082       .  S
H1112      C1129   1.081   1_554  S
N1114     Co1128   2.065       .  S
N1115      N1127   1.322       .  A
N1115      N1131   1.323       .  A
N1115     Co1124   2.062   1_556  S
C1116      N1120   1.358       .  A
C1116      C1130   1.438       .  S
C1117      C1136   1.467       .  S
C1117      H1121   1.081       .  S
N1118      C1129   1.339   1_554  A
N1118     Co1128   2.087       .  S
C1122      C1385   1.499       .  S
C1122      N1138   1.348   1_556  A
C1122      C1134   1.477       .  S
Co1124    Cl1135   2.471       .  S
N1125      C1136   1.345       .  A
C1126      C1405   1.478       .  S
Co1128    Cl1135   2.426       .  S
C1139      C1140   1.424       .  A
C1139      C1144   1.416       .  A
C1139      C1377   1.495       .  S
C1140      C1141   1.425   1_556  A
C1140      C1598   1.500       .  S
C1141      C1142   1.419       .  A
C1141      C1386   1.508       .  S
C1142      C1143   1.424       .  A
C1142      C1418   1.497       .  S
C1143      C1144   1.419   1_554  A
C1143      C1442   1.504       .  S
C1144      C1526   1.498       .  S
C1145      N1163   1.333       .  A
C1145      C1182   1.466       .  S
N1146      N1163   1.317       .  A
N1146      N1168   1.317   1_556  A
N1146     Co1183   2.025   1_556  S
C1147      N1172   1.344       .  A
C1147      C1185   1.461       .  S
C1147      H1192   1.082       .  S
H1148      C1189   1.081       .  S
C1149      N1173   1.338       .  A
C1149      C1153   1.454       .  S
C1149      H1178   1.082       .  S
Co1150     N1168   2.105       .  S
Co1150     N1158   2.080       .  S
Co1150     N1190   2.074       .  S
Co1150     N1166   2.086       .  S
Co1150    Cl1194   2.424       .  S
N1151      C1189   1.351       .  A
N1151      N1158   1.324   1_556  A
N1151     Co1152   2.137   1_556  S
Co1152     N1155   2.066   1_554  S
Co1152     N1172   2.065       .  S
Co1152     N1159   2.138       .  S
Co1152    Cl1194   2.469       .  S
C1153      N1191   1.342       .  A
N1154      N1161   1.321       .  A
N1154      N1184   1.327       .  A
N1154     Co1187   2.093       .  S
N1155      N1173   1.323       .  A
N1155      N1191   1.322       .  A
N1156      C1185   1.350       .  A
N1156      N1166   1.316       .  A
H1157      C1182   1.082   1_554  S
N1158      N1179   1.327       .  A
N1159      N1177   1.324   1_554  A
N1159      N1164   1.333       .  A
C1160      C1449   1.490       .  S
C1160      N1164   1.361       .  A
C1160      C1188   1.454   1_554  S
N1161      C1176   1.341       .  A
N1161     Co1183   2.092   1_556  S
C1162      N1190   1.339       .  A
C1162      C1165   1.455       .  S
C1162      H1196   1.081       .  S
C1165      C1410   1.475       .  S
C1165      N1186   1.353       .  A
N1166      N1172   1.317       .  A
N1167      C1193   1.331       .  A
N1167      N1169   1.316   1_554  A
N1167     Co1183   2.017       .  S
N1168      C1182   1.344   1_554  A
N1169      N1197   1.321       .  A
N1169     Co1187   2.090       .  S
H1170      C1193   1.081       .  S
H1171      C1188   1.082       .  S
N1173     Co1187   2.078       .  S
N1174      N1186   1.328       .  A
N1174      N1190   1.318       .  A
N1174     Co1183   2.094       .  S
C1175      C1730   1.495       .  S
C1175      N1179   1.347   1_556  A
C1175      C1189   1.475       .  S
C1176      C1195   1.454       .  S
C1176      H1180   1.081       .  S
N1177      C1188   1.338       .  A
N1177     Co1187   2.075       .  S
C1181      N1197   1.349   1_554  A
C1181      C1193   1.435       .  S
Co1183    Cl1194   2.470       .  S
N1184      C1195   1.352       .  A
Co1187    Cl1194   2.433   1_556  S
C1195      C1581   1.475       .  S
C1198      C1374   1.480       .  S
C1198      N1216   1.360       .  A
C1198      C1235   1.449       .  S
N1199      N1216   1.331       .  A
N1199      N1221   1.323       .  A
N1199     Co1236   2.133       .  S
C1200      N1225   1.338       .  A
C1200      C1238   1.451       .  S
C1200      H1245   1.081       .  S
H1201      C1242   1.082       .  S
C1202      N1226   1.338       .  A
C1202      C1206   1.453       .  S
C1202      H1231   1.081       .  S
Co1203     N1221   2.055       .  S
Co1203     N1211   2.107       .  S
Co1203     N1243   2.094       .  S
Co1203     N1219   2.082       .  S
Co1203    Cl1247   2.433       .  S
N1204      C1242   1.333       .  A
N1204      N1211   1.316       .  A
N1204     Co1205   2.037       .  S
Co1205     N1208   2.088       .  S
Co1205     N1225   2.080       .  S
Co1205     N1212   2.044       .  S
Co1205    Cl1247   2.469       .  S
C1206      C1614   1.468       .  S
C1206      N1244   1.351       .  A
N1207      N1214   1.318       .  A
N1207      N1237   1.317       .  A
N1207     Co1240   2.085       .  S
N1208      N1226   1.318       .  A
N1208      N1244   1.326       .  A
N1209      C1238   1.350       .  A
N1209      N1219   1.325       .  A
H1210      C1235   1.081       .  S
N1211      N1232   1.327       .  A
N1212      N1230   1.317       .  A
N1212      N1217   1.320       .  A
C1213      N1217   1.338       .  A
C1213      C1241   1.466       .  S
N1214      C1229   1.346       .  A
N1214     Co1236   2.074       .  S
C1215      N1243   1.341       .  A
C1215      C1218   1.457       .  S
C1215      H1249   1.082       .  S
C1218      N1239   1.344       .  A
N1219      N1225   1.320       .  A
N1220      C1246   1.350       .  A
N1220      N1222   1.324       .  A
N1220     Co1236   2.130       .  S
N1221      C1235   1.332       .  A
N1222      N1250   1.324       .  A
N1222     Co1240   2.074       .  S
H1223      C1246   1.082       .  S
H1224      C1241   1.081       .  S
N1226     Co1240   2.069       .  S
N1227      N1239   1.324       .  A
N1227      N1243   1.323       .  A
N1227     Co1236   2.069       .  S
C1228      N1232   1.355       .  A
C1228      C1242   1.442       .  S
C1229      C1248   1.464       .  S
C1229      H1233   1.081       .  S
N1230      C1241   1.345       .  A
N1230     Co1240   2.104       .  S
C1234      C1378   1.488       .  S
C1234      N1250   1.345       .  A
C1234      C1246   1.473       .  S
Co1236    Cl1247   2.472       .  S
N1237      C1248   1.349       .  A
C1238      C1514   1.464       .  S
Co1240    Cl1247   2.424       .  S
C1251      C1430   1.482       .  S
C1251      N1269   1.360       .  A
C1251      C1288   1.450       .  S
N1252      N1269   1.331       .  A
N1252      N1274   1.326       .  A
N1252     Co1289   2.136       .  S
C1253      N1278   1.342       .  A
C1253      C1291   1.457       .  S
C1253      H1298   1.082       .  S
H1254      C1295   1.081   1_545  S
C1255      N1279   1.336       .  A
C1255      C1259   1.449       .  S
C1255      H1284   1.082       .  S
Co1256     N1274   2.069       .  S
Co1256     N1264   2.106       .  S
Co1256     N1296   2.078       .  S
Co1256     N1272   2.097       .  S
Co1256    Cl1300   2.431       .  S
N1257      C1295   1.331       .  A
N1257      N1264   1.315       .  A
N1257     Co1258   2.028       .  S
Co1258     N1261   2.103       .  S
Co1258     N1278   2.094       .  S
Co1258     N1265   2.024       .  S
Co1258    Cl1300   2.465       .  S
C1259      C1686   1.469       .  S
C1259      N1297   1.354       .  A
N1260      N1267   1.318       .  A
N1260      N1290   1.315       .  A
N1260     Co1293   2.067       .  S
N1261      N1279   1.318       .  A
N1261      N1297   1.327       .  A
N1262      C1291   1.354       .  A
N1262      N1272   1.330       .  A
H1263      C1288   1.082       .  S
N1264      N1285   1.326       .  A
N1265      N1283   1.316       .  A
N1265      N1270   1.317       .  A
C1266      N1270   1.334       .  A
C1266      C1294   1.458       .  S
N1267      C1282   1.350       .  A
N1267     Co1289   2.095       .  S
C1268      N1296   1.337       .  A
C1268      C1271   1.452       .  S
C1268      H1302   1.082       .  S
C1271      N1292   1.342       .  A
N1272      N1278   1.320       .  A
N1273      C1299   1.350       .  A
N1273      N1275   1.323       .  A
N1273     Co1289   2.125       .  S
N1274      C1288   1.334       .  A
N1275      N1303   1.324       .  A
N1275     Co1293   2.076       .  S
H1276      C1299   1.081       .  S
H1277      C1294   1.082       .  S
N1279     Co1293   2.057       .  S
N1280      N1292   1.322       .  A
N1280      N1296   1.323       .  A
N1280     Co1289   2.066       .  S
C1281      N1285   1.356       .  A
C1281      C1295   1.441       .  S
C1282      C1301   1.471       .  S
C1282      H1286   1.082       .  S
N1283      C1294   1.337       .  A
N1283     Co1293   2.080       .  S
C1287      C1402   1.486       .  S
C1287      N1303   1.345       .  A
C1287      C1299   1.472       .  S
Co1289    Cl1300   2.474       .  S
N1290      C1301   1.343       .  A
C1291      C1474   1.482       .  S
Co1293    Cl1300   2.421       .  S
C1304      N1322   1.331       .  A
C1304      C1341   1.460       .  S
N1305      N1322   1.316       .  A
N1305      N1327   1.317       .  A
N1305     Co1342   2.011       .  S
C1306      N1331   1.348       .  A
C1306      C1344   1.468       .  S
C1306      H1351   1.082       .  S
H1307      C1348   1.082       .  S
C1308      N1332   1.328       .  A
C1308      C1312   1.459       .  S
C1308      H1337   1.082       .  S
Co1309     N1327   2.085       .  S
Co1309     N1317   2.084       .  S
Co1309     N1349   2.076       .  S
Co1309     N1325   2.065       .  S
Co1309    Cl1353   2.413       .  S
N1310      C1348   1.348       .  A
N1310      N1317   1.324       .  A
N1310     Co1311   2.114       .  S
Co1311     N1314   2.087       .  S
Co1311     N1331   2.089       .  S
Co1311     N1318   2.118       .  S
Co1311    Cl1353   2.483       .  S
C1312      N1350   1.354       .  A
N1313      N1320   1.319       .  A
N1313      N1343   1.330       .  A
N1313     Co1346   2.082       .  S
N1314      N1332   1.319       .  A
N1314      N1350   1.329       .  A
N1315      C1344   1.343       .  A
N1315      N1325   1.313       .  A
H1316      C1341   1.082       .  S
N1317      N1338   1.323       .  A
N1318      N1336   1.323       .  A
N1318      N1323   1.330       .  A
C1319      C1534   1.481       .  S
C1319      N1323   1.358       .  A
C1319      C1347   1.453       .  S
N1320      C1335   1.346       .  A
N1320     Co1342   2.115       .  S
C1321      N1349   1.344       .  A
C1321      C1324   1.458       .  S
C1321      H1355   1.081       .  S
C1324      C1389   1.487       .  S
C1324      N1345   1.357       .  A
N1325      N1331   1.318       .  A
N1326      C1352   1.328       .  A
N1326      N1328   1.315       .  A
N1326     Co1342   2.007       .  S
N1327      C1341   1.337       .  A
N1328      N1356   1.324       .  A
N1328     Co1346   2.100       .  S
H1329      C1352   1.081       .  S
H1330      C1347   1.081       .  S
N1332     Co1346   2.073       .  S
N1333      N1345   1.330       .  A
N1333      N1349   1.318       .  A
N1333     Co1342   2.118       .  S
C1334      C1642   1.482       .  S
C1334      N1338   1.346       .  A
C1334      C1348   1.469       .  S
C1335      C1354   1.465       .  S
C1335      H1339   1.080       .  S
N1336      C1347   1.334       .  A
N1336     Co1346   2.074       .  S
C1340      N1356   1.354       .  A
C1340      C1352   1.431       .  S
Co1342    Cl1353   2.473       .  S
N1343      C1354   1.350       .  A
Co1346    Cl1353   2.413       .  S
C1354      C1369   1.486       .  S
C1357      C1358   1.412       .  A
C1357      C1362   1.412       .  A
C1357      C1373   1.482       .  S
C1358      C1359   1.418       .  A
C1358      C1622   1.489       .  S
C1359      C1360   1.420       .  A
C1359      C1466   1.506       .  S
C1360      C1361   1.420       .  A
C1360      C1421   1.494       .  S
C1361      C1362   1.415       .  A
C1361      C1394   1.497       .  S
C1362      C1498   1.493       .  S
C1363      C1364   1.421   1_554  A
C1363      C1368   1.424       .  A
C1363      C1521   1.495       .  S
C1364      C1365   1.420   1_455  A
C1364      C1722   1.504       .  S
C1365      C1366   1.417       .  A
C1365      C1570   1.488       .  S
C1366      C1367   1.415   1_556  A
C1366      C1382   1.494       .  S
C1367      C1368   1.423   1_655  A
C1367      C1650   1.495       .  S
C1368      C1370   1.507       .  S
C1369      C1370   1.355       .  D
C1369      H1371   1.084   1_455  S
C1370      H1372   1.086       .  S
C1373      C1374   1.352       .  D
C1373      H1375   1.084       .  S
C1374      H1376   1.086       .  S
C1377      C1378   1.354       .  D
C1377      H1379   1.087       .  S
C1378      H1380   1.087       .  S
C1381      C1382   1.356   1_554  D
C1381      H1383   1.086       .  S
C1382      H1384   1.084       .  S
C1385      C1386   1.358   1_556  D
C1385      H1387   1.086       .  S
C1386      H1388   1.085       .  S
C1389      C1390   1.355       .  D
C1389      H1391   1.085   1_455  S
C1390      H1392   1.086       .  S
C1393      C1394   1.353       .  D
C1393      H1395   1.086       .  S
C1394      H1396   1.086       .  S
C1397      C1398   1.351       .  D
C1397      H1399   1.085       .  S
C1398      H1400   1.086       .  S
C1401      C1402   1.353       .  D
C1401      H1403   1.085       .  S
C1402      H1404   1.086       .  S
C1405      C1406   1.345       .  D
C1405      H1407   1.085       .  S
C1406      H1408   1.084       .  S
C1409      C1410   1.351       .  D
C1409      H1411   1.085       .  S
C1410      H1412   1.085       .  S
C1413      C1414   1.349       .  D
C1413      H1415   1.085       .  S
C1414      H1416   1.087       .  S
C1417      C1418   1.348       .  D
C1417      H1419   1.086       .  S
C1418      H1420   1.087       .  S
C1421      C1422   1.344       .  D
C1421      H1423   1.082       .  S
C1422      H1424   1.086       .  S
C1425      C1426   1.354       .  D
C1425      H1427   1.087       .  S
C1426      H1428   1.087       .  S
C1429      C1430   1.352       .  D
C1429      H1431   1.085       .  S
C1430      H1432   1.086       .  S
C1433      C1434   1.348       .  D
C1433      H1435   1.087       .  S
C1434      H1436   1.086       .  S
C1437      C1438   1.358       .  D
C1437      H1439   1.085       .  S
C1438      H1440   1.086       .  S
C1441      C1442   1.348       .  D
C1441      H1443   1.083   1_554  S
C1442      H1444   1.082       .  S
C1445      C1446   1.349       .  D
C1445      H1447   1.087       .  S
C1446      H1448   1.086       .  S
C1449      C1450   1.354   1_554  D
C1449      H1451   1.086       .  S
C1450      H1452   1.086       .  S
C1453      C1454   1.350       .  D
C1453      H1455   1.085       .  S
C1454      H1456   1.085   1_554  S
C1457      C1458   1.348       .  D
C1457      H1459   1.086       .  S
C1458      H1460   1.086       .  S
C1461      C1462   1.353   1_565  D
C1461      H1463   1.087       .  S
C1462      H1464   1.087       .  S
C1465      C1466   1.350       .  D
C1465      H1467   1.083       .  S
C1466      H1468   1.083       .  S
C1469      C1470   1.352       .  D
C1469      H1471   1.087       .  S
C1470      H1472   1.085       .  S
C1473      C1474   1.347       .  D
C1473      H1475   1.084       .  S
C1474      H1476   1.085   1_565  S
C1477      C1478   1.355       .  D
C1477      H1479   1.085       .  S
C1478      H1480   1.085       .  S
C1481      C1482   1.354   1_545  D
C1481      H1483   1.084       .  S
C1482      H1484   1.086       .  S
C1485      C1486   1.352       .  D
C1485      H1487   1.085       .  S
C1486      H1488   1.086       .  S
C1489      C1490   1.355   1_565  D
C1489      H1491   1.087       .  S
C1490      H1492   1.087       .  S
C1493      C1494   1.358   1_545  D
C1493      H1495   1.086       .  S
C1494      H1496   1.085       .  S
C1497      C1498   1.354       .  D
C1497      H1499   1.086       .  S
C1498      H1500   1.085       .  S
C1501      C1502   1.353       .  D
C1501      H1503   1.086       .  S
C1502      H1504   1.086       .  S
C1505      C1506   1.342       .  D
C1505      H1507   1.084       .  S
C1506      H1508   1.086       .  S
C1509      C1510   1.343       .  D
C1509      H1511   1.087       .  S
C1510      H1512   1.084       .  S
C1513      C1514   1.343       .  D
C1513      H1515   1.085       .  S
C1514      H1516   1.087       .  S
C1517      C1518   1.344       .  D
C1517      H1519   1.082       .  S
C1518      H1520   1.085       .  S
C1521      C1522   1.357   1_554  D
C1521      H1523   1.085       .  S
C1522      H1524   1.086       .  S
C1525      C1526   1.357   1_554  D
C1525      H1527   1.086       .  S
C1526      H1528   1.085       .  S
C1529      C1530   1.344       .  D
C1529      H1531   1.086       .  S
C1530      H1532   1.084       .  S
C1533      C1534   1.350       .  D
C1533      H1535   1.082       .  S
C1534      H1536   1.086       .  S
C1537      C1538   1.340       .  D
C1537      H1539   1.086       .  S
C1538      H1540   1.084       .  S
C1541      C1542   1.349       .  D
C1541      H1543   1.086       .  S
C1542      H1544   1.086       .  S
C1545      C1546   1.348       .  D
C1545      H1547   1.086       .  S
C1546      H1548   1.086       .  S
C1549      C1550   1.347       .  D
C1549      H1551   1.085       .  S
C1550      H1552   1.085       .  S
C1553      C1554   1.354   1_455  D
C1553      H1555   1.087       .  S
C1554      H1556   1.083       .  S
C1557      C1558   1.351       .  D
C1557      H1559   1.085       .  S
C1558      H1560   1.087       .  S
C1561      C1562   1.348       .  D
C1561      H1563   1.084       .  S
C1562      H1564   1.083       .  S
C1565      C1566   1.353       .  D
C1565      H1567   1.086       .  S
C1566      H1568   1.086       .  S
C1569      C1570   1.353       .  D
C1569      H1571   1.086       .  S
C1570      H1572   1.084       .  S
C1573      C1574   1.341       .  D
C1573      H1575   1.086       .  S
C1574      H1576   1.082       .  S
C1577      C1578   1.345       .  D
C1577      H1579   1.086       .  S
C1578      H1580   1.085       .  S
C1581      C1582   1.345       .  D
C1581      H1583   1.085       .  S
C1582      H1584   1.083       .  S
C1585      C1586   1.346       .  D
C1585      H1587   1.087       .  S
C1586      H1588   1.087       .  S
C1589      C1590   1.349       .  D
C1589      H1591   1.087       .  S
C1590      H1592   1.087       .  S
C1593      C1594   1.346       .  D
C1593      H1595   1.085       .  S
C1594      H1596   1.085       .  S
C1597      C1598   1.351       .  D
C1597      H1599   1.084   1_556  S
C1598      H1600   1.086       .  S
C1601      C1602   1.348       .  D
C1601      H1603   1.087       .  S
C1602      H1604   1.086       .  S
C1605      C1606   1.350       .  D
C1605      H1607   1.086   1_556  S
C1606      H1608   1.086       .  S
C1609      C1610   1.344       .  D
C1609      H1611   1.085       .  S
C1610      H1612   1.086       .  S
C1613      C1614   1.347       .  D
C1613      H1615   1.085       .  S
C1614      H1616   1.085       .  S
C1617      C1618   1.350       .  D
C1617      H1619   1.084       .  S
C1618      H1620   1.086       .  S
C1621      C1622   1.351       .  D
C1621      H1623   1.086       .  S
C1622      H1624   1.085       .  S
C1625      C1626   1.353       .  D
C1625      H1627   1.086       .  S
C1626      H1628   1.086       .  S
C1629      C1630   1.343       .  D
C1629      H1631   1.087       .  S
C1630      H1632   1.085       .  S
C1633      C1634   1.352       .  D
C1633      H1635   1.085       .  S
C1634      H1636   1.086       .  S
C1637      C1638   1.349       .  D
C1637      H1639   1.086       .  S
C1638      H1640   1.086       .  S
C1641      C1642   1.350       .  D
C1641      H1643   1.086       .  S
C1642      H1644   1.086       .  S
C1645      C1646   1.347       .  D
C1645      H1647   1.086       .  S
C1646      H1648   1.086       .  S
C1649      C1650   1.354   1_455  D
C1649      H1651   1.086       .  S
C1650      H1652   1.083       .  S
C1653      C1654   1.347       .  D
C1653      H1655   1.084       .  S
C1654      H1656   1.084       .  S
C1657      C1658   1.349       .  D
C1657      H1659   1.084       .  S
C1658      H1660   1.083       .  S
C1661      C1662   1.342       .  D
C1661      H1663   1.085       .  S
C1662      H1664   1.084       .  S
C1665      C1666   1.342       .  D
C1665      H1667   1.086       .  S
C1666      H1668   1.082       .  S
C1669      C1670   1.357   1_554  D
C1669      H1671   1.085       .  S
C1670      H1672   1.086       .  S
C1673      C1674   1.344       .  D
C1673      H1675   1.087       .  S
C1674      H1676   1.083       .  S
C1677      C1678   1.357   1_655  D
C1677      H1679   1.086       .  S
C1678      H1680   1.086       .  S
C1681      C1682   1.349       .  D
C1681      H1683   1.087       .  S
C1682      H1684   1.087       .  S
C1685      C1686   1.351       .  D
C1685      H1687   1.085       .  S
C1686      H1688   1.086   1_565  S
C1689      C1690   1.354       .  D
C1689      H1691   1.085       .  S
C1690      H1692   1.087       .  S
C1693      C1694   1.356   1_565  D
C1693      H1695   1.084       .  S
C1694      H1696   1.086       .  S
C1697      C1698   1.355   1_655  D
C1697      H1699   1.086       .  S
C1698      H1700   1.085       .  S
C1701      C1702   1.361       .  D
C1701      H1703   1.086   1_455  S
C1702      H1704   1.087       .  S
C1705      C1706   1.352       .  D
C1705      H1707   1.086       .  S
C1706      H1708   1.086       .  S
C1709      C1710   1.355       .  D
C1709      H1711   1.085       .  S
C1710      H1712   1.084       .  S
C1713      C1714   1.347       .  D
C1713      H1715   1.085   1_655  S
C1714      H1716   1.081   1_545  S
C1717      C1718   1.341       .  D
C1717      H1719   1.086       .  S
C1718      H1720   1.082       .  S
C1721      C1722   1.361   1_655  D
C1721      H1723   1.086       .  S
C1722      H1724   1.085       .  S
C1725      C1726   1.341       .  D
C1725      H1727   1.086       .  S
C1726      H1728   1.084       .  S
C1729      C1730   1.358   1_554  D
C1729      H1731   1.086       .  S
C1730      H1732   1.087       .  S
C1733      C1734   1.356   1_565  D
C1733      H1735   1.086       .  S
C1734      H1736   1.085       .  S
C1737      C1738   1.352   1_455  D
C1737      H1739   1.085       .  S
C1738      H1740   1.086       .  S
C1741      C1742   1.358   1_556  D
C1741      H1743   1.084       .  S
C1742      H1744   1.086       .  S
C1745      C1746   1.349       .  D
C1745      H1747   1.084   1_655  S
C1746      H1748   1.086   1_565  S
C1749      C1750   1.359   1_455  D
C1749      H1751   1.086       .  S
C1750      H1752   1.084       .  S
