geometry optimzed in LAMMPS
_audit_creation_date              2020-11-30 
_audit_creation_method            'lammps2cif' 
_symmetry_space_group_name_H-M    'P1' 
_symmetry_Int_Tables_number       1 
_symmetry_cell_setting            triclinic 
loop_ 
_symmetry_equiv_pos_as_xyz 
  x,y,z 
_cell_length_a                    104.22781012 
_cell_length_b                    104.09285980825193 
_cell_length_c                    103.7815830542429 
_cell_angle_alpha                 90.04974879657256 
_cell_angle_beta                  90.01698674172691 
_cell_angle_gamma                 90.04747815407376 
loop_ 
_atom_site_label 
_atom_site_type_symbol 
_atom_site_fract_x 
_atom_site_fract_y 
_atom_site_fract_z 
_atom_site_charge 
In1        In  0.76324957  0.35725109  0.38227806     1.36900
C2          C  0.78021237  0.36934813  0.39708018     0.77300
O3          O  0.74844645  0.36943633  0.39157855    -0.61100
O4          O  0.74782039  0.34941238  0.39552965    -0.52000
C5          C  0.75177387  0.36263656  0.36006189     0.70000
O6          O  0.75966752  0.37021357  0.36537046    -0.46900
C7          C  0.77868153  0.33809189  0.37526127     0.74700
O8          O  0.77647805  0.37393561  0.38643140    -0.58700
O9          O  0.76926875  0.33637007  0.38279080    -0.48800
O10         O  0.77523126  0.35869578  0.39999844    -0.55200
C11         C  0.74296725  0.36039918  0.39748830     0.84900
O12         O  0.74998697  0.35222591  0.36605074    -0.57100
O13         O  0.77976227  0.34942213  0.37108538    -0.60400
In14       In  0.64448312  0.41096591  0.49248405     1.36900
C15         C  0.65990060  0.39937966  0.47590934     0.77300
O16         O  0.63527318  0.41891741  0.47496737    -0.61100
O17         O  0.64385082  0.43221959  0.48793459    -0.52000
C18         C  0.62165035  0.40486064  0.50203886     0.70000
O19         O  0.62742193  0.39782630  0.49399024    -0.46900
C20         C  0.65985687  0.40763561  0.51261171     0.74700
O21         O  0.64932894  0.39451489  0.47939019    -0.58700
O22         O  0.65756098  0.41869166  0.50808798    -0.48800
O23         O  0.66240085  0.41017448  0.48085298    -0.55200
C24         C  0.63797144  0.43047276  0.47739501     0.84900
O25         O  0.62765353  0.41492030  0.50520153    -0.57100
O26         O  0.65381862  0.39863338  0.50719586    -0.60400
In27       In  0.75456394  0.35726361  0.61190719     1.36900
C28         C  0.73892103  0.36949944  0.59586270     0.77300
O29         O  0.76997337  0.36950162  0.60363846    -0.61100
O30         O  0.77062291  0.34946981  0.59958137    -0.52000
C31         C  0.76470054  0.36262374  0.63486916     0.70000
O32         O  0.75679198  0.37000749  0.62934509    -0.46900
C33         C  0.73888807  0.33780409  0.61734838     0.74700
O34         O  0.74119278  0.37364326  0.60710827    -0.58700
O35         O  0.74913474  0.33619313  0.61100329    -0.48800
O36         O  0.74464670  0.35921301  0.59302115    -0.55200
C37         C  0.77565769  0.36043037  0.59795425     0.84900
O38         O  0.76706658  0.35239700  0.62876679    -0.57100
O39         O  0.73703118  0.34918544  0.62107066    -0.60400
In40       In  0.87273313  0.41073883  0.50162226     1.36900
C41         C  0.85782306  0.39841086  0.51835070     0.77300
O42         O  0.88379739  0.41924413  0.51789874    -0.61100
O43         O  0.87148198  0.43168073  0.50743961    -0.52000
C44         C  0.89511869  0.40538416  0.49048434     0.70000
O45         O  0.89027730  0.39822070  0.49904653    -0.46900
C46         C  0.85794202  0.40793504  0.48095893     0.74700
O47         O  0.86867039  0.39410701  0.51499859    -0.58700
O48         O  0.86016967  0.41887863  0.48581120    -0.48800
O49         O  0.85475101  0.40887537  0.51308759    -0.55200
C50         C  0.87928316  0.43040841  0.51669230     0.84900
O51         O  0.88854049  0.41521359  0.48785083    -0.57100
O52         O  0.86339331  0.39872429  0.48663904    -0.60400
In53       In  0.35755463  0.39434472  0.75195014     1.36900
C54         C  0.36985395  0.40988973  0.76819846     0.77300
O55         O  0.36998797  0.40284528  0.73671676    -0.61100
O56         O  0.35015119  0.40751568  0.73628518    -0.52000
C57         C  0.36262644  0.37179964  0.74087520     0.70000
O58         O  0.37008073  0.37689955  0.74905172    -0.46900
C59         C  0.33738479  0.38822386  0.76662674     0.74700
O60         O  0.37412693  0.39883128  0.76547262    -0.58700
O61         O  0.33655441  0.39595708  0.75726476    -0.48800
O62         O  0.35930979  0.41257658  0.76292751    -0.55200
C63         C  0.36114039  0.40911265  0.73133513     0.84900
O64         O  0.35253690  0.37814375  0.73866559    -0.57100
O65         O  0.34844770  0.38356817  0.76826761    -0.60400
In66       In  0.41126081  0.51479697  0.86104206     1.36900
C67         C  0.39865269  0.53144200  0.84638605     0.77300
O68         O  0.41907268  0.53181111  0.87148150    -0.61100
O69         O  0.43217992  0.52080298  0.86036816    -0.52000
C70         C  0.40600626  0.50301785  0.88320702     0.70000
O71         O  0.39864085  0.51131084  0.87827255    -0.46900
C72         C  0.40814390  0.49491831  0.84526571     0.74700
O73         O  0.39441665  0.52785827  0.85723570    -0.58700
O74         O  0.41912727  0.49959512  0.84761303    -0.48800
O75         O  0.40926066  0.52652937  0.84324268    -0.55200
C76         C  0.43041352  0.53056457  0.86743861     0.84900
O77         O  0.41620444  0.50105504  0.87694017    -0.57100
O78         O  0.39905797  0.50025034  0.85123194    -0.60400
In79       In  0.41071401  0.50416056  0.63136011     1.36900
C80         C  0.39968325  0.48703321  0.64677020     0.77300
O81         O  0.41898053  0.48784976  0.62027806    -0.61100
O82         O  0.43177237  0.49906321  0.63163280    -0.52000
C83         C  0.40462852  0.51467385  0.60884123     0.70000
O84         O  0.39741510  0.50664505  0.61443335    -0.46900
C85         C  0.40750408  0.52444962  0.64663447     0.74700
O86         O  0.39481768  0.49019798  0.63605732    -0.58700
O87         O  0.41853877  0.52013185  0.64393746    -0.48800
O88         O  0.41013278  0.49256777  0.64938243    -0.55200
C89         C  0.43031375  0.48953208  0.62418609     0.84900
O90         O  0.41486702  0.51723675  0.61482305    -0.57100
O91         O  0.39838476  0.51859007  0.64120626    -0.60400
In92       In  0.35614998  0.62294992  0.74181527     1.36900
C93         C  0.36841531  0.60759397  0.72535909     0.77300
O94         O  0.36799996  0.61440008  0.75742477    -0.61100
O95         O  0.34812395  0.60980655  0.75719541    -0.52000
C96         C  0.36148085  0.64551782  0.75255359     0.70000
O97         O  0.36853207  0.64061063  0.74393430    -0.46900
C98         C  0.33653970  0.63009555  0.72703741     0.74700
O99         O  0.37311087  0.61816551  0.72911600    -0.58700
O100        O  0.33502753  0.62292235  0.73676168    -0.48800
O101        O  0.35749587  0.60508018  0.72994987    -0.55200
C102        C  0.35890515  0.60831172  0.76261560     0.84900
O103        O  0.35175548  0.63890338  0.75546670    -0.57100
O104        O  0.34796697  0.63359087  0.72511875    -0.60400
In105      In  0.50332898  0.64350904  0.39740398     1.36900
C106        C  0.48690210  0.65874564  0.38529660     0.77300
O107        O  0.48603327  0.63407789  0.40585385    -0.61100
O108        O  0.49853224  0.64391245  0.41866765    -0.52000
C109        C  0.51358263  0.62076541  0.39181403     0.70000
O110        O  0.50579413  0.62632182  0.38432901    -0.46900
C111        C  0.52380178  0.65853243  0.39443089     0.74700
O112        O  0.48986051  0.64777503  0.38096040    -0.58700
O113        O  0.51896898  0.65632925  0.40539510    -0.48800
O114        O  0.49230787  0.66171425  0.39575706    -0.55200
C115        C  0.48827395  0.63755030  0.41728206     0.84900
O116        O  0.51592901  0.62683405  0.40207574    -0.57100
O117        O  0.51833618  0.65277406  0.38524980    -0.60400
In118      In  0.62285099  0.75405777  0.34528336     1.36900
C119        C  0.60758047  0.73714768  0.35699048     0.77300
O120        O  0.61313770  0.76881501  0.35738690    -0.61100
O121        O  0.61025455  0.76979173  0.33715228    -0.52000
C122        C  0.64518526  0.76517320  0.35127356     0.70000
O123        O  0.63991439  0.75694470  0.35852255    -0.46900
C124        C  0.62958105  0.73967999  0.32511902     0.74700
O125        O  0.61833871  0.74037905  0.36163939    -0.58700
O126        O  0.62184010  0.74897573  0.32412538    -0.48800
O127        O  0.60492839  0.74238930  0.34638074    -0.55200
C128        C  0.60774878  0.77448074  0.34811860     0.84900
O129        O  0.63907997  0.76746413  0.34102623    -0.57100
O130        O  0.63398972  0.73801473  0.33631954    -0.60400
In131      In  0.51333239  0.87248018  0.39958962     1.36900
C132        C  0.52946326  0.85729343  0.38684034     0.77300
O133        O  0.53037099  0.88218931  0.40813390    -0.61100
O134        O  0.51821861  0.87193275  0.42091267    -0.52000
C135        C  0.50255803  0.89499253  0.39397597     0.70000
O136        O  0.51054749  0.88959258  0.38657996    -0.46900
C137        C  0.49280221  0.85777983  0.39617159     0.74700
O138        O  0.52735413  0.86876606  0.38344231    -0.58700
O139        O  0.49798645  0.85906870  0.40714184    -0.48800
O140        O  0.52343520  0.85379152  0.39676676    -0.55200
C141        C  0.52824886  0.87865453  0.41954864     0.84900
O142        O  0.50034462  0.88895073  0.40428380    -0.57100
O143        O  0.49795837  0.86427120  0.38732111    -0.60400
In144      In  0.39393722  0.76293290  0.34465488     1.36900
C145        C  0.40932604  0.77988119  0.35604276     0.77300
O146        O  0.40379225  0.74850591  0.35689294    -0.61100
O147        O  0.40649192  0.74708519  0.33664037    -0.52000
C148        C  0.37151068  0.75238408  0.35088798     0.70000
O149        O  0.37652891  0.76132248  0.35744271    -0.46900
C150        C  0.38658359  0.77757361  0.32509990     0.74700
O151        O  0.39949934  0.77532830  0.36155425    -0.58700
O152        O  0.39381467  0.76793310  0.32347469    -0.48800
O153        O  0.41110574  0.77583092  0.34472404    -0.55200
C154        C  0.40905481  0.74261724  0.34769249     0.84900
O155        O  0.37791996  0.74906461  0.34111856    -0.57100
O156        O  0.38294721  0.77930303  0.33656124    -0.60400
In157      In  0.12297839  0.75362589  0.14810246     1.36900
C158        C  0.10836850  0.73604589  0.13664676     0.77300
O159        O  0.13453987  0.73789086  0.15666132    -0.61100
O160        O  0.12233162  0.74848287  0.16920988    -0.52000
C161        C  0.14542080  0.76459029  0.14274657     0.70000
O162        O  0.14044877  0.75614001  0.13552827    -0.46900
C163        C  0.10732620  0.77348296  0.14460221     0.74700
O164        O  0.11846230  0.74041786  0.13147397    -0.58700
O165        O  0.11005116  0.76934116  0.15573778    -0.48800
O166        O  0.10599930  0.74054185  0.14768239    -0.55200
C167        C  0.13026943  0.73936418  0.16793673     0.84900
O168        O  0.13882534  0.76739148  0.15255243    -0.57100
O169        O  0.11280768  0.76759775  0.13552452    -0.60400
In170      In  0.00291270  0.64455988  0.09575743     1.36900
C171        C  0.98617876  0.65959214  0.10805663     0.77300
O172        O  0.01804822  0.65373851  0.10776410    -0.61100
O173        O  0.01860413  0.65717838  0.08759556    -0.52000
C174        C  0.01393666  0.62218958  0.10151505     0.70000
O175        O  0.00597218  0.62759357  0.10894481    -0.46900
C176        C  0.98841325  0.63828701  0.07559527     0.74700
O177        O  0.98899786  0.64847902  0.11207908    -0.58700
O178        O  0.99768799  0.64606936  0.07469876    -0.48800
O179        O  0.99175857  0.66274786  0.09776553    -0.55200
C180        C  0.02359012  0.65928433  0.09851260     0.84900
O181        O  0.01597131  0.62814192  0.09112186    -0.57100
O182        O  0.98689542  0.63354597  0.08667165    -0.60400
In183      In  0.89499504  0.76523206  0.14926469     1.36900
C184        C  0.91018220  0.78157771  0.13667581     0.77300
O185        O  0.88545258  0.78212556  0.15832035    -0.61100
O186        O  0.89643651  0.77001737  0.17050676    -0.52000
C187        C  0.87188452  0.75552280  0.14404843     0.70000
O188        O  0.87775340  0.76281900  0.13629563    -0.46900
C189        C  0.90920984  0.74418179  0.14634840     0.74700
O190        O  0.89874259  0.77944205  0.13322331    -0.58700
O191        O  0.90768936  0.74953280  0.15719020    -0.48800
O192        O  0.91368748  0.77537561  0.14648247    -0.55200
C193        C  0.88953724  0.77995584  0.16953989     0.84900
O194        O  0.87786960  0.75329366  0.15437861    -0.57100
O195        O  0.90313042  0.74940863  0.13724098    -0.60400
In196      In  0.01411743  0.87405838  0.09466548     1.36900
C197        C  0.03070234  0.85865623  0.10635029     0.77300
O198        O  0.99926758  0.86501389  0.10705145    -0.61100
O199        O  0.99846548  0.86120820  0.08692500    -0.52000
C200        C  0.00304750  0.89635998  0.10004640     0.70000
O201        O  0.01119973  0.89126392  0.10749491    -0.46900
C202        C  0.02892653  0.88070025  0.07492387     0.74700
O203        O  0.02748818  0.86937891  0.11112881    -0.58700
O204        O  0.01907644  0.87371646  0.07350808    -0.48800
O205        O  0.02551417  0.85607528  0.09567740    -0.55200
C206        C  0.99363273  0.85929319  0.09795048     0.84900
O207        O  0.00088870  0.89014071  0.08983173    -0.57100
O208        O  0.03087287  0.88444422  0.08633125    -0.60400
In209      In  0.39491567  0.26419329  0.64669341     1.36900
C210        C  0.41019611  0.28086888  0.63466122     0.77300
O211        O  0.38422529  0.28095248  0.65470632    -0.61100
O212        O  0.39534136  0.26982038  0.66773648    -0.52000
C213        C  0.37218953  0.25365874  0.64150446     0.70000
O214        O  0.37752015  0.26158743  0.63396852    -0.46900
C215        C  0.40967772  0.24343206  0.64421205     0.74700
O216        O  0.39987414  0.27685045  0.62964443    -0.58700
O217        O  0.40803787  0.24890347  0.65498246    -0.48800
O218        O  0.41252723  0.27631532  0.64566311    -0.55200
C219        C  0.38815167  0.27948488  0.66611265     0.84900
O220        O  0.37849053  0.25128604  0.65161895    -0.57100
O221        O  0.40364750  0.24851464  0.63500394    -0.60400
In222      In  0.50402932  0.14492254  0.59250503     1.36900
C223        C  0.48754169  0.16016742  0.60476711     0.77300
O224        O  0.51899267  0.15404200  0.60466104    -0.61100
O225        O  0.51912063  0.15830712  0.58461511    -0.52000
C226        C  0.51502481  0.12237591  0.59773521     0.70000
O227        O  0.50675499  0.12743919  0.60507122    -0.46900
C228        C  0.48896139  0.13858155  0.57285904     0.74700
O229        O  0.49113323  0.14950293  0.60937883    -0.58700
O230        O  0.49907821  0.14513068  0.57130150    -0.48800
O231        O  0.49232041  0.16283274  0.59392993    -0.55200
C232        C  0.52410390  0.16022994  0.59557439     0.84900
O233        O  0.51743331  0.12878709  0.58770382    -0.57100
O234        O  0.48693296  0.13508314  0.58431594    -0.60400
In235      In  0.62264777  0.25469417  0.64616156     1.36900
C236        C  0.60632009  0.23956693  0.63376349     0.77300
O237        O  0.63265797  0.23745083  0.65399870    -0.61100
O238        O  0.62175555  0.24872094  0.66710297    -0.52000
C239        C  0.64536991  0.26498433  0.64093765     0.70000
O240        O  0.64011877  0.25682646  0.63357238    -0.46900
C241        C  0.60891863  0.27585397  0.64289660     0.74700
O242        O  0.61741698  0.24195342  0.62941984    -0.58700
O243        O  0.61040477  0.27085719  0.65393506    -0.48800
O244        O  0.60381906  0.24477119  0.64444568    -0.55200
C245        C  0.62873231  0.23891046  0.66540289     0.84900
O246        O  0.63907020  0.26755159  0.65101256    -0.57100
O247        O  0.61469748  0.27014725  0.63388673    -0.60400
In248      In  0.51408808  0.37483898  0.59322160     1.36900
C249        C  0.53094259  0.35983878  0.60506656     0.77300
O250        O  0.49965597  0.36542986  0.60596423    -0.61100
O251        O  0.49816839  0.36213315  0.58579618    -0.52000
C252        C  0.50359629  0.39756053  0.59805124     0.70000
O253        O  0.51167392  0.39245810  0.60556591    -0.46900
C254        C  0.52876698  0.38064710  0.57313976     0.74700
O255        O  0.52797297  0.37079851  0.60945311    -0.58700
O256        O  0.51877935  0.37381709  0.57202807    -0.48800
O257        O  0.52529016  0.35678271  0.59476227    -0.55200
C258        C  0.49382983  0.35976666  0.59693575     0.84900
O259        O  0.50104190  0.39102835  0.58813499    -0.57100
O260        O  0.53092934  0.38464898  0.58440738    -0.60400
In261      In  0.35754054  0.12463903  0.25220517     1.36900
C262        C  0.36912443  0.10941084  0.26916796     0.77300
O263        O  0.34903258  0.13536048  0.26863281    -0.61100
O264        O  0.33646683  0.12390703  0.25726211    -0.52000
C265        C  0.36306349  0.14723002  0.24169465     0.70000
O266        O  0.37045251  0.14186060  0.24972617    -0.46900
C267        C  0.36095926  0.11003585  0.23146926     0.74700
O268        O  0.37377648  0.12015839  0.26590276    -0.58700
O269        O  0.34993806  0.11182470  0.23627581    -0.48800
O270        O  0.35864178  0.10664031  0.26377055    -0.55200
C271        C  0.33777304  0.13126147  0.26689762     0.84900
O272        O  0.35289702  0.14107273  0.23929518    -0.57100
O273        O  0.36990340  0.11590617  0.23715628    -0.60400
In274      In  0.41077355  0.01414577  0.13262434     1.36900
C275        C  0.39906426  0.03079209  0.14808084     0.77300
O276        O  0.39899704  0.99916647  0.14234042    -0.61100
O277        O  0.41917656  0.99847713  0.14515972    -0.52000
C278        C  0.40508310  0.00311208  0.11013864     0.70000
O279        O  0.39741155  0.01062290  0.11583766    -0.46900
C280        C  0.43010641  0.02954758  0.12612816     0.74700
O281        O  0.39451813  0.02777316  0.13717284    -0.58700
O282        O  0.43170565  0.01969737  0.13308564    -0.48800
O283        O  0.40946355  0.02528396  0.15088698    -0.55200
C284        C  0.40832815  0.99362891  0.14771223     0.84900
O285        O  0.41565201  0.00154368  0.11586067    -0.57100
O286        O  0.41873916  0.03118053  0.12227776    -0.60400
In287      In  0.35851696  0.89356068  0.24105565     1.36900
C288        C  0.37114359  0.90874811  0.22479085     0.77300
O289        O  0.35025373  0.88308919  0.22407392    -0.61100
O290        O  0.33748621  0.89401975  0.23561916    -0.52000
C291        C  0.36364118  0.87131676  0.25242391     0.70000
O292        O  0.37117202  0.87634747  0.24430022    -0.46900
C293        C  0.36150448  0.90851050  0.26169749     0.74700
O294        O  0.37507694  0.89757891  0.22753092    -0.58700
O295        O  0.35076222  0.90725517  0.25611786    -0.48800
O296        O  0.36080604  0.91188125  0.23024782    -0.55200
C297        C  0.33892121  0.88698514  0.22577202     0.84900
O298        O  0.35347278  0.87758957  0.25444024    -0.57100
O299        O  0.37042082  0.90189755  0.25685528    -0.60400
In300      In  0.41108869  0.00419934  0.36114663     1.36900
C301        C  0.39902504  0.98841269  0.34506122     0.77300
O302        O  0.39918380  0.01936484  0.35220209    -0.61100
O303        O  0.41924320  0.02008032  0.34855190    -0.52000
C304        C  0.40566182  0.01467412  0.38395768     0.70000
O305        O  0.39784396  0.00747266  0.37804418    -0.46900
C306        C  0.42991418  0.98805393  0.36731811     0.74700
O307        O  0.39462044  0.99099502  0.35614197    -0.58700
O308        O  0.43202245  0.99842409  0.36129212    -0.48800
O309        O  0.40950631  0.99388576  0.34241734    -0.55200
C310        C  0.40828004  0.02491102  0.34645142     0.84900
O311        O  0.41626082  0.01622242  0.37828173    -0.57100
O312        O  0.41832158  0.98626001  0.37032742    -0.60400
In313      In  0.37241353  0.10827518  0.49126335     1.36900
C314        C  0.35739266  0.12046938  0.47460738     0.77300
O315        O  0.38381318  0.09981998  0.47513410    -0.61100
O316        O  0.37140532  0.08732459  0.48543191    -0.52000
C317        C  0.39467730  0.11440111  0.50206353     0.70000
O318        O  0.38945989  0.12129832  0.49352477    -0.46900
C319        C  0.35733871  0.11144763  0.51170466     0.74700
O320        O  0.36804515  0.12503665  0.47823873    -0.58700
O321        O  0.36013634  0.10036434  0.50751054    -0.48800
O322        O  0.35469471  0.10963435  0.47932282    -0.55200
C323        C  0.37933142  0.08862521  0.47628458     0.84900
O324        O  0.38849301  0.10436971  0.50494661    -0.57100
O325        O  0.36250211  0.12054814  0.50561307    -0.60400
In326      In  0.26334101  0.16243504  0.61157697     1.36900
C327        C  0.28020138  0.15056398  0.59642220     0.77300
O328        O  0.24816228  0.15037113  0.60248935    -0.61100
O329        O  0.24817694  0.17028747  0.59809958    -0.52000
C330        C  0.25295847  0.15738927  0.63445432     0.70000
O331        O  0.26068969  0.14977822  0.62897462    -0.46900
C332        C  0.27811019  0.18211679  0.61828469     0.74700
O333        O  0.27613547  0.14552544  0.60674021    -0.58700
O334        O  0.26841671  0.18350355  0.61106176    -0.48800
O335        O  0.27579176  0.16160217  0.59416250    -0.55200
C336        C  0.24312620  0.15939503  0.59618032     0.84900
O337        O  0.25063231  0.16751998  0.62819420    -0.57100
O338        O  0.27991318  0.17078168  0.62219647    -0.60400
In339      In  0.14454302  0.10823753  0.50124647     1.36900
C340        C  0.15977119  0.12037227  0.51784065     0.77300
O341        O  0.13345211  0.09994959  0.51765042    -0.61100
O342        O  0.14545591  0.08734723  0.50696871    -0.52000
C343        C  0.12212062  0.11391896  0.49029678     0.70000
O344        O  0.12682140  0.12061982  0.49931222    -0.46900
C345        C  0.16014168  0.11043326  0.48108158     0.74700
O346        O  0.14985630  0.12561987  0.51316426    -0.58700
O347        O  0.15648745  0.09959631  0.48521605    -0.48800
O348        O  0.16158422  0.10895519  0.51420167    -0.55200
C349        C  0.13783805  0.08872945  0.51635679     0.84900
O350        O  0.12890341  0.10442810  0.48703884    -0.57100
O351        O  0.15557464  0.11990133  0.48711068    -0.60400
In352      In  0.25324716  0.16085748  0.38184983     1.36900
C353        C  0.23751539  0.14785503  0.39713494     0.77300
O354        O  0.26886595  0.14932836  0.39069711    -0.61100
O355        O  0.26848981  0.16930446  0.39487991    -0.52000
C356        C  0.26357198  0.15618939  0.35891845     0.70000
O357        O  0.25571683  0.14856985  0.36418677    -0.46900
C358        C  0.23736193  0.17992002  0.37613622     0.74700
O359        O  0.24148580  0.14327013  0.38656766    -0.58700
O360        O  0.24753052  0.18170176  0.38256168    -0.48800
O361        O  0.24155965  0.15899622  0.39966063    -0.55200
C362        C  0.27385918  0.15856715  0.39674807     0.84900
O363        O  0.26582625  0.16627735  0.36528262    -0.57100
O364        O  0.23561959  0.16849672  0.37245005    -0.60400
In365      In  0.76530539  0.66202327  0.11213854     1.36900
C366        C  0.78158589  0.64952753  0.09688958     0.77300
O367        O  0.74992794  0.65019688  0.10299101    -0.61100
O368        O  0.75035115  0.67012947  0.09861245    -0.52000
C369        C  0.75385633  0.65664008  0.13442982     0.70000
O370        O  0.76235772  0.64942611  0.12959332    -0.46900
C371        C  0.78016778  0.68178279  0.11889357     0.74700
O372        O  0.77843128  0.64525745  0.10785481    -0.58700
O373        O  0.77061649  0.68304003  0.11148546    -0.48800
O374        O  0.77664828  0.66020102  0.09405358    -0.55200
C375        C  0.74501598  0.65935481  0.09675385     0.84900
O376        O  0.75150606  0.66662482  0.12795078    -0.57100
O377        O  0.78184832  0.67050808  0.12300580    -0.60400
In378      In  0.87338811  0.60702458  0.99235479     1.36900
C379        C  0.85761412  0.61861416  0.97595342     0.77300
O380        O  0.88359019  0.59924027  0.97523562    -0.61100
O381        O  0.87366973  0.58595090  0.98719746    -0.52000
C382        C  0.89609488  0.61299087  0.00242263     0.70000
O383        O  0.89028855  0.62032944  0.99466212    -0.46900
C384        C  0.85860110  0.60979686  0.01302846     0.74700
O385        O  0.86819336  0.62352446  0.97936239    -0.58700
O386        O  0.86051007  0.59891708  0.00791563    -0.48800
O387        O  0.85528127  0.60778477  0.98086442    -0.55200
C388        C  0.88037598  0.58771855  0.97718028     0.84900
O389        O  0.89027700  0.60263075  0.00487548    -0.57100
O390        O  0.86461849  0.61891692  0.00780471    -0.60400
In391      In  0.75402783  0.66108638  0.88231368     1.36900
C392        C  0.73715211  0.64907033  0.89739649     0.77300
O393        O  0.76868504  0.64879771  0.89183686    -0.61100
O394        O  0.76991772  0.66891092  0.89505228    -0.52000
C395        C  0.76452521  0.65585925  0.85952013     0.70000
O396        O  0.75660038  0.64839213  0.86491916    -0.46900
C397        C  0.73919426  0.68089937  0.87588036     0.74700
O398        O  0.74070353  0.64441937  0.88670422    -0.58700
O399        O  0.74856642  0.68206864  0.88355455    -0.48800
O400        O  0.74214887  0.65976841  0.90011058    -0.55200
C401        C  0.77438006  0.65787345  0.89750737     0.84900
O402        O  0.76701144  0.66593489  0.86582922    -0.57100
O403        O  0.73773321  0.66972872  0.87138411    -0.60400
In404      In  0.64496182  0.60890069  0.00299227     1.36900
C405        C  0.66068240  0.62139095  0.01890840     0.77300
O406        O  0.63555246  0.60078511  0.02047406    -0.61100
O407        O  0.64473905  0.58766737  0.00781986    -0.52000
C408        C  0.62242786  0.61456458  0.99221770     0.70000
O409        O  0.62728963  0.62132026  0.00110269    -0.46900
C410        C  0.65978356  0.61171247  0.98239706     0.74700
O411        O  0.64985796  0.62587483  0.01569975    -0.58700
O412        O  0.65790353  0.60081628  0.98748844    -0.48800
O413        O  0.66323542  0.61056687  0.01407104    -0.55200
C414        C  0.63854923  0.58927663  0.01818158     0.84900
O415        O  0.62900033  0.60486679  0.98913158    -0.57100
O416        O  0.65391484  0.62085478  0.98776450    -0.60400
In417      In  0.15871263  0.12392708  0.74029282     1.36900
C418        C  0.14672263  0.10875233  0.72350007     0.77300
O419        O  0.16704891  0.13466023  0.72364123    -0.61100
O420        O  0.17973711  0.12353468  0.73513768    -0.52000
C421        C  0.15310499  0.14650601  0.75078621     0.70000
O422        O  0.14546705  0.14073180  0.74327922    -0.46900
C423        C  0.15622031  0.10929433  0.76123592     0.74700
O424        O  0.14206792  0.11940527  0.72703028    -0.58700
O425        O  0.16692098  0.11085790  0.75569997    -0.48800
O426        O  0.15738730  0.10606522  0.72854044    -0.55200
C427        C  0.17838354  0.13082179  0.72547874     0.84900
O428        O  0.16361285  0.14078185  0.75266415    -0.57100
O429        O  0.14707777  0.11536507  0.75614359    -0.60400
In430      In  0.10711832  0.00316899  0.63112709     1.36900
C431        C  0.12000242  0.98690184  0.64612393     0.77300
O432        O  0.11878757  0.01882567  0.63989657    -0.61100
O433        O  0.09895029  0.01816774  0.64458437    -0.52000
C434        C  0.11264802  0.01457546  0.60886971     0.70000
O435        O  0.11984796  0.00616219  0.61385274    -0.46900
C436        C  0.08718853  0.98836812  0.62477554     0.74700
O437        O  0.12380727  0.98975912  0.63491587    -0.58700
O438        O  0.08608301  0.99806306  0.63202987    -0.48800
O439        O  0.10964344  0.99221778  0.64938867    -0.55200
C440        C  0.10963713  0.02374190  0.64612703     0.84900
O441        O  0.10251186  0.01681052  0.61513073    -0.57100
O442        O  0.09839512  0.98651149  0.62059673    -0.60400
In443      In  0.16027899  0.89588910  0.75173353     1.36900
C444        C  0.14699262  0.91088885  0.76762325     0.77300
O445        O  0.16826571  0.88498787  0.76840378    -0.61100
O446        O  0.18089378  0.89738767  0.75823020    -0.52000
C447        C  0.15587242  0.87335996  0.74062869     0.70000
O448        O  0.14827974  0.87814546  0.74883996    -0.46900
C449        C  0.15811646  0.91065225  0.73099376     0.74700
O450        O  0.14281431  0.90006130  0.76398312    -0.58700
O451        O  0.16882567  0.90871995  0.73641174    -0.48800
O452        O  0.15787334  0.91379495  0.76319796    -0.55200
C453        C  0.17941226  0.88961540  0.76747464     0.84900
O454        O  0.16570980  0.88005870  0.73834165    -0.57100
O455        O  0.14881305  0.90475522  0.73603455    -0.60400
In456      In  0.10636027  0.01472144  0.86067741     1.36900
C457        C  0.11846552  0.03134012  0.84544010     0.77300
O458        O  0.11800717  0.99907731  0.85189577    -0.61100
O459        O  0.09800293  0.99906847  0.84801693    -0.52000
C460        C  0.11164191  0.00445263  0.88349697     0.70000
O461        O  0.11928922  0.01198155  0.87778798    -0.46900
C462        C  0.08722051  0.03009425  0.86755529     0.74700
O463        O  0.12329207  0.02742065  0.85590629    -0.58700
O464        O  0.08551771  0.02061833  0.86008520    -0.48800
O465        O  0.10759248  0.02667229  0.84287957    -0.55200
C466        C  0.10876312  0.99374997  0.84616122     0.84900
O467        O  0.10127016  0.00237640  0.87755630    -0.57100
O468        O  0.09857945  0.03141514  0.87154484    -0.60400
In469      In  0.37219656  0.90983582  0.00216566     1.36900
C470        C  0.35722280  0.89694912  0.01848974     0.77300
O471        O  0.38311673  0.91806595  0.01879768    -0.61100
O472        O  0.37172021  0.93086553  0.00774898    -0.52000
C473        C  0.39456817  0.90413026  0.99118759     0.70000
O474        O  0.38882129  0.89648526  0.99868649    -0.46900
C475        C  0.35696472  0.90758795  0.98163056     0.74700
O476        O  0.36815629  0.89285782  0.01518604    -0.58700
O477        O  0.35875011  0.91827145  0.98718011    -0.48800
O478        O  0.35428946  0.90768889  0.01373863    -0.55200
C479        C  0.37918810  0.92942149  0.01725052     0.84900
O480        O  0.38887882  0.91469362  0.98944486    -0.57100
O481        O  0.36324868  0.89841433  0.98639328    -0.60400
In482      In  0.25314795  0.85675973  0.11067557     1.36900
C483        C  0.23693528  0.86868504  0.09479838     0.77300
O484        O  0.26839403  0.86813276  0.10095995    -0.61100
O485        O  0.26853656  0.84790140  0.09817240    -0.52000
C486        C  0.26416824  0.86287872  0.13311980     0.70000
O487        O  0.25615923  0.87017896  0.12762593    -0.46900
C488        C  0.23811431  0.83723861  0.11751794     0.74700
O489        O  0.23992699  0.87329661  0.10568417    -0.58700
O490        O  0.24785720  0.83571323  0.11042583    -0.48800
O491        O  0.24209607  0.85802536  0.09229884    -0.55200
C492        C  0.27362951  0.85862664  0.09556559     0.84900
O493        O  0.26625358  0.85248994  0.12720921    -0.57100
O494        O  0.23632747  0.84864828  0.12120957    -0.60400
In495      In  0.26441164  0.85577118  0.88159852     1.36900
C496        C  0.28115190  0.86816946  0.89650228     0.77300
O497        O  0.24932455  0.86779798  0.89065604    -0.61100
O498        O  0.24912108  0.84789120  0.89506994    -0.52000
C499        C  0.25340960  0.86158169  0.85923077     0.70000
O500        O  0.26147583  0.86888411  0.86464830    -0.46900
C501        C  0.27905828  0.83596306  0.87481731     0.74700
O502        O  0.27769866  0.87250353  0.88566463    -0.58700
O503        O  0.26964874  0.83472996  0.88241759    -0.48800
O504        O  0.27627046  0.85747411  0.89939210    -0.55200
C505        C  0.24411890  0.85882140  0.89689255     0.84900
O506        O  0.25122611  0.85122405  0.86517421    -0.57100
O507        O  0.28062258  0.84718908  0.87052506    -0.60400
In508      In  0.14359458  0.91059342  0.99024003     1.36900
C509        C  0.15935755  0.89901515  0.97376034     0.77300
O510        O  0.13494538  0.91869250  0.97245201    -0.61100
O511        O  0.14363288  0.93179329  0.98557383    -0.52000
C512        C  0.12051882  0.90565297  0.00023407     0.70000
O513        O  0.12612974  0.89793277  0.99267884    -0.46900
C514        C  0.15834903  0.90731286  0.01092019     0.74700
O515        O  0.14853408  0.89428808  0.97668498    -0.58700
O516        O  0.15703420  0.91814346  0.00554740    -0.48800
O517        O  0.16191143  0.90949927  0.97928462    -0.55200
C518        C  0.13800630  0.93017360  0.97487604     0.84900
O519        O  0.12664836  0.91589718  0.00240002    -0.57100
O520        O  0.15176319  0.89842150  0.00595297    -0.60400
In521      In  0.39490540  0.75433015  0.84400387     1.36900
C522        C  0.41063801  0.73848011  0.85632509     0.77300
O523        O  0.38509131  0.73682744  0.83652742    -0.61100
O524        O  0.39485163  0.74864027  0.82298667    -0.52000
C525        C  0.37193257  0.76399862  0.84926522     0.70000
O526        O  0.37762509  0.75634350  0.85679940    -0.46900
C527        C  0.40921714  0.77538997  0.84659992     0.74700
O528        O  0.40019551  0.74227862  0.86122739    -0.58700
O529        O  0.40782565  0.76985450  0.83581591    -0.48800
O530        O  0.41289934  0.74283137  0.84521793    -0.55200
C531        C  0.38832215  0.73855958  0.82494440     0.84900
O532        O  0.37797963  0.76650703  0.83902608    -0.57100
O533        O  0.40299632  0.77033299  0.85568929    -0.60400
In534      In  0.51424392  0.64604453  0.89953221     1.36900
C535        C  0.53045460  0.66172711  0.88763738     0.77300
O536        O  0.49908041  0.65451867  0.88720710    -0.61100
O537        O  0.49843352  0.65880531  0.90723646    -0.52000
C538        C  0.50356664  0.62350476  0.89410585     0.70000
O539        O  0.51148028  0.62888677  0.88659299    -0.46900
C540        C  0.52946206  0.63974356  0.91910240     0.74700
O541        O  0.52746616  0.65087229  0.88301300    -0.58700
O542        O  0.51975383  0.64690451  0.92054839    -0.48800
O543        O  0.52521868  0.66433209  0.89826830    -0.55200
C544        C  0.49351993  0.66045941  0.89619627     0.84900
O545        O  0.50144604  0.62956732  0.90443562    -0.57100
O546        O  0.53102311  0.63558850  0.90778158    -0.60400
In547      In  0.50376680  0.87346793  0.89913445     1.36900
C548        C  0.48758198  0.85845006  0.88610512     0.77300
O549        O  0.51967553  0.86552276  0.88726499    -0.61100
O550        O  0.51900916  0.86006407  0.90697489    -0.52000
C551        C  0.51433938  0.89624271  0.89433571     0.70000
O552        O  0.50621779  0.89108547  0.88689011    -0.46900
C553        C  0.48824928  0.87941933  0.91864693     0.74700
O554        O  0.49129821  0.86917164  0.88174849    -0.58700
O555        O  0.49798429  0.87230952  0.92014410    -0.48800
O556        O  0.49218598  0.85559697  0.89696149    -0.55200
C557        C  0.52464679  0.85904551  0.89621787     0.84900
O558        O  0.51673661  0.88986513  0.90440461    -0.57100
O559        O  0.48683018  0.88365902  0.90735524    -0.60400
In560      In  0.62413495  0.76530646  0.84549440     1.36900
C561        C  0.60952987  0.78276423  0.85704407     0.77300
O562        O  0.63524878  0.78124462  0.83653873    -0.61100
O563        O  0.62376200  0.76968560  0.82418395    -0.52000
C564        C  0.64621974  0.75397701  0.85143613     0.70000
O565        O  0.64139517  0.76276507  0.85832097    -0.46900
C566        C  0.60848039  0.74550992  0.84917080     0.74700
O567        O  0.61995745  0.77890396  0.86193152    -0.58700
O568        O  0.61054639  0.75006518  0.83805716    -0.48800
O569        O  0.60685841  0.77782837  0.84627519    -0.55200
C570        C  0.63124862  0.77920518  0.82524692     0.84900
O571        O  0.63978553  0.75120305  0.84150486    -0.57100
O572        O  0.61453978  0.75101401  0.85812176    -0.60400
In573      In  0.75276157  0.16147228  0.11177286     1.36900
C574        C  0.73567729  0.14937096  0.09730461     0.77300
O575        O  0.73608020  0.16963532  0.12210380    -0.61100
O576        O  0.74774342  0.18255592  0.11134341    -0.52000
C577        C  0.76328066  0.15682259  0.13454146     0.70000
O578        O  0.75535913  0.14921653  0.12933409    -0.46900
C579        C  0.77255156  0.15767752  0.09609282     0.74700
O580        O  0.73954028  0.14477088  0.10789973    -0.58700
O581        O  0.76790756  0.16876107  0.09795821    -0.48800
O582        O  0.74044119  0.16012918  0.09440542    -0.55200
C583        C  0.73795348  0.18101745  0.11840824     0.84900
O584        O  0.76583716  0.16671770  0.12799554    -0.57100
O585        O  0.76731230  0.14887789  0.10256746    -0.60400
In586      In  0.87352459  0.10769243  0.00244150     1.36900
C587        C  0.85754923  0.11844277  0.01910789     0.77300
O588        O  0.86399745  0.12017211  0.98804865    -0.61100
O589        O  0.86084491  0.10001616  0.98657935    -0.52000
C590        C  0.89593110  0.11406185  0.99201057     0.70000
O591        O  0.89024520  0.12122894  0.00002776    -0.46900
C592        C  0.88036584  0.08820720  0.01730848     0.74700
O593        O  0.86827115  0.12345389  0.01631141    -0.58700
O594        O  0.87428040  0.08647775  0.00688524    -0.48800
O595        O  0.85525737  0.10791863  0.01351740    -0.55200
C596        C  0.85841410  0.11111774  0.98223058     0.84900
O597        O  0.89016908  0.10368258  0.98952343    -0.57100
O598        O  0.88319727  0.09975057  0.01969312    -0.60400
In599      In  0.76481999  0.16066059  0.88177184     1.36900
C600        C  0.78116102  0.14865970  0.89724407     0.77300
O601        O  0.78191229  0.16831935  0.87135370    -0.61100
O602        O  0.77054871  0.18145819  0.88215175    -0.52000
C603        C  0.75386521  0.15604341  0.85912395     0.70000
O604        O  0.76128501  0.14799432  0.86441925    -0.46900
C605        C  0.74427162  0.15874144  0.89680222     0.74700
O606        O  0.77758655  0.14378531  0.88664621    -0.58700
O607        O  0.74978424  0.16938119  0.89477181    -0.48800
O608        O  0.77634330  0.15948567  0.89970849    -0.55200
C609        C  0.78032402  0.17973881  0.87513428     0.84900
O610        O  0.75230740  0.16631130  0.86539234    -0.57100
O611        O  0.74915493  0.14933475  0.89091172    -0.60400
In612      In  0.64530031  0.10840845  0.99108036     1.36900
C613        C  0.66054201  0.12095890  0.97464410     0.77300
O614        O  0.65379791  0.12050095  0.00666604    -0.61100
O615        O  0.65839839  0.10061121  0.00650361    -0.52000
C616        C  0.62271025  0.11347000  0.00209988     0.70000
O617        O  0.62761431  0.12071773  0.99363610    -0.46900
C618        C  0.63900122  0.08831649  0.97637254     0.74700
O619        O  0.64964685  0.12522821  0.97789275    -0.58700
O620        O  0.64656556  0.08729823  0.98585134    -0.48800
O621        O  0.66336876  0.11029895  0.97963421    -0.55200
C622        C  0.65989817  0.11142744  0.01187613     0.84900
O623        O  0.62928809  0.10361485  0.00465620    -0.57100
O624        O  0.63460083  0.09948048  0.97470980    -0.60400
In625      In  0.51421090  0.14449535  0.09559249     1.36900
C626        C  0.53063551  0.15971721  0.10786603     0.77300
O627        O  0.53164884  0.13480423  0.08771617    -0.61100
O628        O  0.51960781  0.14455214  0.07442856    -0.52000
C629        C  0.50394489  0.12168274  0.10089964     0.70000
O630        O  0.51134041  0.12744057  0.10866130    -0.46900
C631        C  0.49358281  0.15949690  0.09827737     0.74700
O632        O  0.52718228  0.14900280  0.11246233    -0.58700
O633        O  0.49933389  0.15827220  0.08760576    -0.48800
O634        O  0.52560577  0.16248437  0.09718333    -0.55200
C635        C  0.52981499  0.13819584  0.07619356     0.84900
O636        O  0.50201846  0.12756723  0.09043632    -0.57100
O637        O  0.49816580  0.15274476  0.10724036    -0.60400
In638      In  0.39384315  0.25444906  0.14797462     1.36900
C639        C  0.40939403  0.23796542  0.13605084     0.77300
O640        O  0.40274333  0.27014848  0.13652589    -0.61100
O641        O  0.40612041  0.27009483  0.15672184    -0.52000
C642        C  0.37126420  0.26492303  0.14226660     0.70000
O643        O  0.37743336  0.25813697  0.13427438    -0.46900
C644        C  0.38751857  0.23925465  0.16750838     0.74700
O645        O  0.39827747  0.24047351  0.13184113    -0.58700
O646        O  0.39445321  0.24912553  0.16900903    -0.48800
O647        O  0.41236168  0.24388700  0.14622404    -0.55200
C648        C  0.40820878  0.27544325  0.14598258     0.84900
O649        O  0.37661714  0.26611690  0.15310735    -0.57100
O650        O  0.38364953  0.23747155  0.15612421    -0.60400
In651      In  0.62299987  0.26428686  0.14899177     1.36900
C652        C  0.60807780  0.28044246  0.13616226     0.77300
O653        O  0.61447190  0.24869498  0.13717425    -0.61100
O654        O  0.60994905  0.24891322  0.15713130    -0.52000
C655        C  0.64581071  0.25408009  0.14409496     0.70000
O656        O  0.64033010  0.26166302  0.13634758    -0.46900
C657        C  0.62867008  0.27963514  0.16857347     0.74700
O658        O  0.61895493  0.27706644  0.13195812    -0.58700
O659        O  0.62224946  0.26942470  0.17004632    -0.48800
O660        O  0.60500728  0.27552480  0.14682571    -0.55200
C661        C  0.60835205  0.24357074  0.14629388     0.84900
O662        O  0.63969471  0.25201334  0.15437557    -0.57100
O663        O  0.63229666  0.28173248  0.15717457    -0.60400
In664      In  0.50356678  0.37201088  0.09518951     1.36900
C665        C  0.48690903  0.35742794  0.10797406     0.77300
O666        O  0.48689252  0.38243834  0.08654970    -0.61100
O667        O  0.49824779  0.37103183  0.07404429    -0.52000
C668        C  0.51477993  0.39431832  0.10095056     0.70000
O669        O  0.50656106  0.38911230  0.10822656    -0.46900
C670        C  0.52416655  0.35710451  0.09768917     0.74700
O671        O  0.48998040  0.36855795  0.11176066    -0.58700
O672        O  0.51868254  0.35875566  0.08693794    -0.48800
O673        O  0.49238915  0.35389227  0.09774678    -0.55200
C674        C  0.48853493  0.37819604  0.07529057     0.84900
O675        O  0.51696599  0.38822096  0.09066338    -0.57100
O676        O  0.51907338  0.36306151  0.10695008    -0.60400
In677      In  0.65976021  0.39442664  0.25144243     1.36900
C678        C  0.64854859  0.40998361  0.26818654     0.77300
O679        O  0.66764239  0.38445850  0.26861137    -0.61100
O680        O  0.68082789  0.39443740  0.25659768    -0.52000
C681        C  0.65376961  0.37179736  0.24136675     0.70000
O682        O  0.64641475  0.37759114  0.24911655    -0.46900
C683        C  0.65685401  0.40910348  0.23069462     0.74700
O684        O  0.64366795  0.39929289  0.26503966    -0.58700
O685        O  0.66781060  0.40654812  0.23529302    -0.48800
O686        O  0.65905108  0.41255583  0.26272294    -0.55200
C687        C  0.67909606  0.38787817  0.26671943     0.84900
O688        O  0.66412573  0.37759583  0.23894087    -0.57100
O689        O  0.64762285  0.40395437  0.23661184    -0.60400
In690      In  0.60668333  0.51386529  0.36234760     1.36900
C691        C  0.61741963  0.53115101  0.34699309     0.77300
O692        O  0.61958211  0.49964235  0.35294071    -0.61100
O693        O  0.59954275  0.49772747  0.34962888    -0.52000
C694        C  0.61203114  0.50371700  0.38518362     0.70000
O695        O  0.61959163  0.51140810  0.37957062    -0.46900
C696        C  0.58684338  0.52840565  0.36878082     0.74700
O697        O  0.62244499  0.52791837  0.35762179    -0.58700
O698        O  0.58554645  0.51832575  0.36205333    -0.48800
O699        O  0.60700373  0.52553006  0.34440395    -0.55200
C700        C  0.61072609  0.49359327  0.34729520     0.84900
O701        O  0.60182173  0.50135212  0.37908531    -0.57100
O702        O  0.59817671  0.53066953  0.37242346    -0.60400
In703      In  0.60657253  0.50389385  0.13210992     1.36900
C704        C  0.61912826  0.48772963  0.14741028     0.77300
O705        O  0.61828883  0.51955212  0.14083892    -0.61100
O706        O  0.59840760  0.51930234  0.14523842    -0.52000
C707        C  0.61187099  0.51436320  0.10933813     0.70000
O708        O  0.61959858  0.50698777  0.11511599    -0.46900
C709        C  0.58728793  0.48825934  0.12582554     0.74700
O710        O  0.62357885  0.49117364  0.13661163    -0.58700
O711        O  0.58570291  0.49795846  0.13301963    -0.48800
O712        O  0.60832619  0.49244167  0.15011405    -0.55200
C713        C  0.60918931  0.52464036  0.14698026     0.84900
O714        O  0.60136785  0.51613426  0.11514445    -0.57100
O715        O  0.59858285  0.48690421  0.12166573    -0.60400
In716      In  0.65971099  0.62376489  0.24190886     1.36900
C717        C  0.64734916  0.60834526  0.22559536     0.77300
O718        O  0.66788037  0.63463444  0.22530449    -0.61100
O719        O  0.68064393  0.62290156  0.23606096    -0.52000
C720        C  0.65459683  0.64643256  0.25270609     0.70000
O721        O  0.64724654  0.64126517  0.24448370    -0.46900
C722        C  0.65640589  0.60906074  0.26258727     0.74700
O723        O  0.64299866  0.61925023  0.22875085    -0.58700
O724        O  0.66732200  0.61042398  0.25738968    -0.48800
O725        O  0.65798835  0.60557946  0.23065227    -0.55200
C726        C  0.67914793  0.63042120  0.22659247     0.84900
O727        O  0.66454579  0.63998715  0.25527640    -0.57100
O728        O  0.64754336  0.61543388  0.25735492    -0.60400
In729      In  0.12336993  0.76565960  0.64784274     1.36900
C730        C  0.10836202  0.78222279  0.63528585     0.77300
O731        O  0.11453393  0.75024383  0.63614544    -0.61100
O732        O  0.10985196  0.75077057  0.65609610    -0.52000
C733        C  0.14537175  0.75378256  0.64262277     0.70000
O734        O  0.14054956  0.76208833  0.63515354    -0.46900
C735        C  0.13067055  0.78067461  0.66721861     0.74700
O736        O  0.11912802  0.77870056  0.63089550    -0.58700
O737        O  0.12295278  0.77142153  0.66881198    -0.48800
O738        O  0.10550030  0.77734595  0.64602270    -0.55200
C739        C  0.10826994  0.74533060  0.64528962     0.84900
O740        O  0.13903182  0.75183953  0.65280501    -0.57100
O741        O  0.13472374  0.78195558  0.65584102    -0.60400
In742      In  0.00293353  0.87365460  0.59513251     1.36900
C743        C  0.98664202  0.85854376  0.60782679     0.77300
O744        O  0.98578910  0.88354840  0.58700657    -0.61100
O745        O  0.99780957  0.87351923  0.57392439    -0.52000
C746        C  0.01306363  0.89646136  0.60083658     0.70000
O747        O  0.00539102  0.89076779  0.60834561    -0.46900
C748        C  0.02392066  0.85910746  0.59700111     0.74700
O749        O  0.99004145  0.86940308  0.61208834    -0.58700
O750        O  0.01787896  0.86034639  0.58650390    -0.48800
O751        O  0.99165226  0.85551726  0.59719995    -0.55200
C752        C  0.98776207  0.88013492  0.57552275     0.84900
O753        O  0.01531525  0.89051588  0.59047764    -0.57100
O754        O  0.01927930  0.86542809  0.60625696    -0.60400
In755      In  0.89405607  0.75500353  0.64896542     1.36900
C756        C  0.90991778  0.73952988  0.63617287     0.77300
O757        O  0.90203666  0.77109519  0.63738428    -0.61100
O758        O  0.90642807  0.77081875  0.65736862    -0.52000
C759        C  0.87116758  0.76477226  0.64340296     0.70000
O760        O  0.87696130  0.75713052  0.63593320    -0.46900
C761        C  0.88807057  0.73934188  0.66838611     0.74700
O762        O  0.89904840  0.74264974  0.63175951    -0.58700
O763        O  0.89469668  0.74940366  0.67004075    -0.48800
O764        O  0.91247927  0.74427246  0.64705762    -0.55200
C765        C  0.90785419  0.77637801  0.64662071     0.84900
O766        O  0.87699264  0.76712952  0.65380859    -0.57100
O767        O  0.88441305  0.73757703  0.65693103    -0.60400
In768      In  0.01370953  0.64633551  0.59487349     1.36900
C769        C  0.03100824  0.66119664  0.60636989     0.77300
O770        O  0.02937610  0.63433981  0.58654914    -0.61100
O771        O  0.01936179  0.64683215  0.57385952    -0.52000
C772        C  0.00247771  0.62419098  0.60069050     0.70000
O773        O  0.01067116  0.62939944  0.60803238    -0.46900
C774        C  0.99349995  0.66168340  0.59774835     0.74700
O775        O  0.02695768  0.65092047  0.61145604    -0.58700
O776        O  0.99796905  0.65891944  0.58674847    -0.48800
O777        O  0.02630872  0.66362413  0.59544421    -0.55200
C778        C  0.02824677  0.63866049  0.57524980     0.84900
O779        O  0.00015225  0.63036106  0.59048819    -0.57100
O780        O  0.99931609  0.65648186  0.60702627    -0.60400
In781      In  0.26397616  0.35747724  0.11088317     1.36900
C782        C  0.28079307  0.36964998  0.09595207     0.77300
O783        O  0.28065818  0.34908400  0.12135325    -0.61100
O784        O  0.26903816  0.33640041  0.11030887    -0.52000
C785        C  0.25323285  0.36270041  0.13360064     0.70000
O786        O  0.26114261  0.37021898  0.12826021    -0.46900
C787        C  0.24398550  0.36035437  0.09515414     0.74700
O788        O  0.27724815  0.37418419  0.10669630    -0.58700
O789        O  0.24859908  0.34940280  0.09769318    -0.48800
O790        O  0.27588287  0.35893225  0.09314673    -0.55200
C791        C  0.27873363  0.33774059  0.11752704     0.84900
O792        O  0.25088064  0.35261681  0.12726611    -0.57100
O793        O  0.24932583  0.36952227  0.10102621    -0.60400
In794      In  0.14438910  0.41140641  0.00107238     1.36900
C795        C  0.16010247  0.39920696  0.01723241     0.77300
O796        O  0.15263885  0.39977048  0.98506524    -0.61100
O797        O  0.15735441  0.41962261  0.98564715    -0.52000
C798        C  0.12169642  0.40553347  0.99074720     0.70000
O799        O  0.12756011  0.39800377  0.99827619    -0.46900
C800        C  0.13791106  0.43113244  0.01614159     0.74700
O801        O  0.14889009  0.39519447  0.01483800    -0.58700
O802        O  0.14436121  0.43261595  0.00592395    -0.48800
O803        O  0.16310245  0.40939813  0.01140546    -0.55200
C804        C  0.15883051  0.40890745  0.98006559     0.84900
O805        O  0.12738575  0.41605538  0.98876006    -0.57100
O806        O  0.13477163  0.41965687  0.01843312    -0.60400
In807      In  0.25262393  0.35707837  0.88151464     1.36900
C808        C  0.23535692  0.36923897  0.89596401     0.77300
O809        O  0.23667131  0.34781450  0.87063777    -0.61100
O810        O  0.24775149  0.33592770  0.88300869    -0.52000
C811        C  0.26330304  0.36261325  0.85875762     0.70000
O812        O  0.25511625  0.36982878  0.86408426    -0.46900
C813        C  0.27265850  0.36089135  0.89704956     0.74700
O814        O  0.23924825  0.37371194  0.88533467    -0.58700
O815        O  0.26830213  0.34975850  0.89480963    -0.48800
O816        O  0.24006467  0.35848019  0.89889556    -0.55200
C817        C  0.23840718  0.33675028  0.87526448     0.84900
O818        O  0.26588818  0.35256841  0.86506109    -0.57100
O819        O  0.26692235  0.36975822  0.89114611    -0.60400
In820      In  0.37366117  0.41047739  0.99137040     1.36900
C821        C  0.35791682  0.39953752  0.97442475     0.77300
O822        O  0.36348695  0.39840794  0.00575794    -0.61100
O823        O  0.36123948  0.41864753  0.00726342    -0.52000
C824        C  0.39594959  0.40399824  0.00207256     0.70000
O825        O  0.39063591  0.39721070  0.99346719    -0.46900
C826        C  0.38113775  0.43001496  0.97675806     0.74700
O827        O  0.36801858  0.39402912  0.97832902    -0.58700
O828        O  0.37356181  0.43151938  0.98617034    -0.48800
O829        O  0.35618156  0.41062436  0.97899368    -0.55200
C830        C  0.35828650  0.40766672  0.01159059     0.84900
O831        O  0.38985433  0.41405585  0.00503775    -0.57100
O832        O  0.38510556  0.41866507  0.97524137    -0.60400
In833      In  0.01469992  0.37356383  0.89705357     1.36900
C834        C  0.03109051  0.35840408  0.88465977     0.77300
O835        O  0.03139814  0.38406959  0.90558533    -0.61100
O836        O  0.01999915  0.37269995  0.91813111    -0.52000
C837        C  0.00382487  0.39605321  0.89151662     0.70000
O838        O  0.01187381  0.39076260  0.88410138    -0.46900
C839        C  0.99430482  0.35839396  0.89450329     0.74700
O840        O  0.02782652  0.36926593  0.88029578    -0.58700
O841        O  0.99929605  0.36072848  0.90537287    -0.48800
O842        O  0.02609367  0.35554569  0.89533748    -0.55200
C843        C  0.02965911  0.37995092  0.91688005     0.84900
O844        O  0.00155593  0.38987127  0.90172118    -0.57100
O845        O  0.99959865  0.36406953  0.88518474    -0.60400
In846      In  0.12330545  0.25385699  0.84487158     1.36900
C847        C  0.10792292  0.23773909  0.85724404     0.77300
O848        O  0.11446879  0.26936437  0.85667585    -0.61100
O849        O  0.11093813  0.26960356  0.83651746    -0.52000
C850        C  0.14625175  0.26367240  0.85009346     0.70000
O851        O  0.14039102  0.25640466  0.85787431    -0.46900
C852        C  0.12902322  0.23842997  0.82533463     0.74700
O853        O  0.11881440  0.24082321  0.86165899    -0.58700
O854        O  0.12241046  0.24850435  0.82381923    -0.48800
O855        O  0.10512343  0.24287568  0.84661518    -0.55200
C856        C  0.10887034  0.27474692  0.84736695     0.84900
O857        O  0.14037593  0.26574249  0.83966912    -0.57100
O858        O  0.13282434  0.23655512  0.83671661    -0.60400
In859      In  0.89464358  0.26440560  0.84571029     1.36900
C860        C  0.91030384  0.27993355  0.85853657     0.77300
O861        O  0.90304073  0.24889751  0.85776789    -0.61100
O862        O  0.90692039  0.24842103  0.83765963    -0.52000
C863        C  0.87164066  0.25436755  0.85031634     0.70000
O864        O  0.87717818  0.26177753  0.85822755    -0.46900
C865        C  0.88939912  0.28018824  0.82624657     0.74700
O866        O  0.89910252  0.27744574  0.86254137    -0.58700
O867        O  0.89605678  0.27013409  0.82475761    -0.48800
O868        O  0.91323702  0.27455921  0.84805309    -0.55200
C869        C  0.90873191  0.24335757  0.84859788     0.84900
O870        O  0.87784272  0.25232112  0.84007730    -0.57100
O871        O  0.88534232  0.28189687  0.83757060    -0.60400
In872      In  0.00350902  0.14539209  0.89907009     1.36900
C873        C  0.98643118  0.15993069  0.88695552     0.77300
O874        O  0.98748387  0.13417910  0.90779151    -0.61100
O875        O  0.99761022  0.14719494  0.91989081    -0.52000
C876        C  0.01505514  0.12319078  0.89399699     0.70000
O877        O  0.00678791  0.12806446  0.88653122    -0.46900
C878        C  0.02358323  0.16063308  0.89556720     0.74700
O879        O  0.98973466  0.14902152  0.88269712    -0.58700
O880        O  0.01935419  0.15806710  0.90671290    -0.48800
O881        O  0.99184346  0.16318804  0.89732356    -0.55200
C882        C  0.98847557  0.13925210  0.91878908     0.84900
O883        O  0.01723880  0.12965442  0.90406430    -0.57100
O884        O  0.01760823  0.15525714  0.88647114    -0.60400
In885      In  0.85754298  0.39498463  0.74231238     1.36900
C886        C  0.86856012  0.41047961  0.72524375     0.77300
O887        O  0.84913848  0.38477671  0.72546123    -0.61100
O888        O  0.83628200  0.39465249  0.73790049    -0.52000
C889        C  0.86362961  0.37239496  0.75263177     0.70000
O890        O  0.87083621  0.37805306  0.74463519    -0.46900
C891        C  0.86101754  0.41008529  0.76270298     0.74700
O892        O  0.87350375  0.39986149  0.72849468    -0.58700
O893        O  0.84997566  0.40788272  0.75811388    -0.48800
O894        O  0.85803706  0.41298955  0.73068716    -0.55200
C895        C  0.83769863  0.38797160  0.72779737     0.84900
O896        O  0.85336279  0.37829540  0.75517967    -0.57100
O897        O  0.87001759  0.40430875  0.75702577    -0.60400
In898      In  0.91107359  0.51493318  0.63202176     1.36900
C899        C  0.89857836  0.53155498  0.64695395     0.77300
O900        O  0.89872196  0.50008488  0.64102774    -0.61100
O901        O  0.91867665  0.49928813  0.64520259    -0.52000
C902        C  0.90592467  0.50375322  0.60945397     0.70000
O903        O  0.89828847  0.51154185  0.61481396    -0.46900
C904        C  0.93051556  0.53029618  0.62561228     0.74700
O905        O  0.89475783  0.52869109  0.63573648    -0.58700
O906        O  0.93196980  0.52085192  0.63315709    -0.48800
O907        O  0.90879168  0.52601228  0.65033520    -0.55200
C908        C  0.90762989  0.49454249  0.64707075     0.84900
O909        O  0.91619752  0.50184129  0.61562225    -0.57100
O910        O  0.91929572  0.53152590  0.62123931    -0.60400
In911      In  0.91179483  0.50549857  0.86109587     1.36900
C912        C  0.89921890  0.48966923  0.84541580     0.77300
O913        O  0.90054187  0.52174254  0.85295767    -0.61100
O914        O  0.92042164  0.52105087  0.84851219    -0.52000
C915        C  0.90672972  0.51538564  0.88418245     0.70000
O916        O  0.89885792  0.50824066  0.87827057    -0.46900
C917        C  0.93075979  0.48942127  0.86693582     0.74700
O918        O  0.89487713  0.49275003  0.85637080    -0.58700
O919        O  0.93249049  0.49919010  0.85989231    -0.48800
O920        O  0.90980695  0.49479408  0.84260757    -0.55200
C921        C  0.90980627  0.52674293  0.84697190     0.84900
O922        O  0.91716336  0.51728058  0.87828974    -0.57100
O923        O  0.91949215  0.48823441  0.87120281    -0.60400
In924      In  0.85657740  0.62324590  0.75148577     1.36900
C925        C  0.86916410  0.60767193  0.76747908     0.77300
O926        O  0.84862424  0.63341022  0.76863300    -0.61100
O927        O  0.83560528  0.62290983  0.75688300    -0.52000
C928        C  0.86211514  0.64608144  0.74118545     0.70000
O929        O  0.86921808  0.64078131  0.74950836    -0.46900
C930        C  0.85883737  0.60856649  0.73060288     0.74700
O931        O  0.87387093  0.61814838  0.76350894    -0.58700
O932        O  0.84809449  0.61042485  0.73597116    -0.48800
O933        O  0.85800553  0.60535258  0.76338950    -0.55200
C934        C  0.83721664  0.62977550  0.76682081     0.84900
O935        O  0.85216058  0.63975666  0.73837229    -0.57100
O936        O  0.86808282  0.61439221  0.73582579    -0.60400
In937      In  0.12415929  0.26554248  0.34507766     1.36900
C938        C  0.10911354  0.28230635  0.35708899     0.77300
O939        O  0.13401418  0.28209151  0.33576228    -0.61100
O940        O  0.12329924  0.26951165  0.32370812    -0.52000
C941        C  0.14678989  0.25511432  0.35022122     0.70000
O942        O  0.14167702  0.26337571  0.35753687    -0.46900
C943        C  0.10929499  0.24521432  0.34921279     0.74700
O944        O  0.11996548  0.27915300  0.36154816    -0.58700
O945        O  0.11084572  0.24991428  0.33807945    -0.48800
O946        O  0.10630880  0.27711714  0.34647333    -0.55200
C947        C  0.13015384  0.27951702  0.32452328     0.84900
O948        O  0.14039874  0.25247236  0.34023692    -0.57100
O949        O  0.11563100  0.25072424  0.35796667    -0.60400
In950      In  0.01438545  0.14452735  0.39755211     1.36900
C951        C  0.03123750  0.16017644  0.38642490     0.77300
O952        O  0.99967473  0.15372940  0.38507935    -0.61100
O953        O  0.99849664  0.15723392  0.40522530    -0.52000
C954        C  0.00372922  0.12195780  0.39204626     0.70000
O955        O  0.01165327  0.12735264  0.38454822    -0.46900
C956        C  0.02908004  0.13775471  0.41735653     0.74700
O957        O  0.02813661  0.14951805  0.38140470    -0.58700
O958        O  0.01933175  0.14487921  0.41872115    -0.48800
O959        O  0.02576536  0.16257020  0.39698839    -0.55200
C960        C  0.99392247  0.15940064  0.39413196     0.84900
O961        O  0.00146872  0.12809910  0.40228845    -0.57100
O962        O  0.03098693  0.13394380  0.40596730    -0.60400
In963      In  0.89426509  0.25362513  0.34455104     1.36900
C964        C  0.90889514  0.23620193  0.35614792     0.77300
O965        O  0.88476875  0.23644408  0.33600154    -0.61100
O966        O  0.89398409  0.24939166  0.32316035    -0.52000
C967        C  0.87182005  0.26451060  0.35021563     0.70000
O968        O  0.87714770  0.25650860  0.35765403    -0.46900
C969        C  0.90972552  0.27381468  0.34784266     0.74700
O970        O  0.89831789  0.23985249  0.36088929    -0.58700
O971        O  0.90800506  0.26874255  0.33689009    -0.48800
O972        O  0.91185999  0.24158094  0.34567798    -0.55200
C973        C  0.88792996  0.23893582  0.32454066     0.84900
O974        O  0.87785200  0.26657013  0.33988227    -0.57100
O975        O  0.90344094  0.26862202  0.35681462    -0.60400
In976      In  0.00392399  0.37387830  0.39889727     1.36900
C977        C  0.98735185  0.35810579  0.38744366     0.77300
O978        O  0.01883206  0.36444046  0.38690151    -0.61100
O979        O  0.01883679  0.36026253  0.40695733    -0.52000
C980        C  0.01519551  0.39591666  0.39256056     0.70000
O981        O  0.00629049  0.39098812  0.38589061    -0.46900
C982        C  0.98922992  0.38195787  0.41826400     0.74700
O983        O  0.99124355  0.36833768  0.38213689    -0.58700
O984        O  0.99876119  0.37462525  0.42001679    -0.48800
O985        O  0.99169864  0.35627221  0.39862728    -0.55200
C986        C  0.02383064  0.35820176  0.39601802     0.84900
O987        O  0.01819504  0.38957042  0.40248876    -0.57100
O988        O  0.98758382  0.38537935  0.40672091    -0.60400
In989      In  0.10803651  0.50392552  0.36064128     1.36900
C990        C  0.12109478  0.48766334  0.34582602     0.77300
O991        O  0.10015908  0.48650754  0.37044158    -0.61100
O992        O  0.08720971  0.49809956  0.35974190    -0.52000
C993        C  0.11316066  0.51455791  0.38344181     0.70000
O994        O  0.12089042  0.50707474  0.37782519    -0.46900
C995        C  0.10999121  0.52440408  0.34534386     0.74700
O996        O  0.12548194  0.49176566  0.35642434    -0.58700
O997        O  0.09929397  0.51916372  0.34770014    -0.48800
O998        O  0.11009831  0.49184554  0.34300259    -0.55200
C999        C  0.08884608  0.48805922  0.36639960     0.84900
O1000       O  0.10277764  0.51636856  0.37746102    -0.57100
O1001       O  0.11936356  0.51933480  0.35106692    -0.60400
In1002     In  0.16159441  0.39431198  0.24227179     1.36900
C1003       C  0.15018905  0.40978260  0.22526458     0.77300
O1004       O  0.15003232  0.40461935  0.25711097    -0.61100
O1005       O  0.17026986  0.40657555  0.25811412    -0.52000
C1006       C  0.15511658  0.37165127  0.25242929     0.70000
O1007       O  0.14821645  0.37733357  0.24419639    -0.46900
C1008       C  0.18124004  0.38714756  0.22751418     0.74700
O1009       O  0.14483385  0.39971501  0.22947729    -0.58700
O1010       O  0.18269843  0.39443148  0.23717289    -0.48800
O1011       O  0.16129192  0.41172212  0.22968129    -0.55200
C1012       C  0.15948651  0.40965958  0.26276601     0.84900
O1013       O  0.16522543  0.37762662  0.25543648    -0.57100
O1014       O  0.16987061  0.38336816  0.22575978    -0.60400
In1015     In  0.15988762  0.62309181  0.25060563     1.36900
C1016       C  0.14695396  0.60780014  0.26655281     0.77300
O1017       O  0.14903535  0.61459450  0.23420675    -0.61100
O1018       O  0.16895347  0.61043318  0.23539888    -0.52000
C1019       C  0.15484201  0.64566362  0.23983856     0.70000
O1020       O  0.14711265  0.64022749  0.24748661    -0.46900
C1021       C  0.17884208  0.62947856  0.26653435     0.74700
O1022       O  0.14268830  0.61865808  0.26316710    -0.58700
O1023       O  0.18062695  0.62247643  0.25673433    -0.48800
O1024       O  0.15762474  0.60488934  0.26164425    -0.55200
C1025       C  0.15852515  0.60884687  0.22935779     0.84900
O1026       O  0.16518977  0.63964665  0.23801778    -0.57100
O1027       O  0.16746539  0.63335322  0.26791794    -0.60400
In1028     In  0.10798709  0.51439694  0.13176041     1.36900
C1029       C  0.12126614  0.53054096  0.14650942     0.77300
O1030       O  0.09951374  0.53142410  0.12185548    -0.61100
O1031       O  0.08709713  0.52025453  0.13355326    -0.52000
C1032       C  0.11256322  0.50409612  0.10868593     0.70000
O1033       O  0.11989541  0.51236425  0.11373930    -0.46900
C1034       C  0.11128174  0.49382786  0.14669449     0.74700
O1035       O  0.12514704  0.52713158  0.13547885    -0.58700
O1036       O  0.10030270  0.49870085  0.14485184    -0.48800
O1037       O  0.11066896  0.52571060  0.14980709    -0.55200
C1038       C  0.08838438  0.52999867  0.12638139     0.84900
O1039       O  0.10289544  0.50123278  0.11543468    -0.57100
O1040       O  0.12021552  0.49923331  0.14055459    -0.60400
In1041     In  0.26312513  0.66013049  0.38160934     1.36900
C1042       C  0.27904862  0.64765424  0.39724204     0.77300
O1043       O  0.28030216  0.66865356  0.37208294    -0.61100
O1044       O  0.26843842  0.68116213  0.38302570    -0.52000
C1045       C  0.25293037  0.65526627  0.35863005     0.70000
O1046       O  0.26094634  0.64780305  0.36388143    -0.46900
C1047       C  0.24226433  0.65692554  0.39589825     0.74700
O1048       O  0.27603529  0.64326954  0.38626707    -0.58700
O1049       O  0.24716515  0.66790422  0.39406817    -0.48800
O1050       O  0.27391722  0.65827184  0.39999578    -0.55200
C1051       C  0.27846902  0.67988320  0.37628000     0.84900
O1052       O  0.25045012  0.66526562  0.36504417    -0.57100
O1053       O  0.24786690  0.64786563  0.39012739    -0.60400
In1054     In  0.14377077  0.60749678  0.49163685     1.36900
C1055       C  0.15917186  0.61953171  0.47519510     0.77300
O1056       O  0.15282064  0.61925451  0.50712000    -0.61100
O1057       O  0.15651308  0.59918366  0.50715774    -0.52000
C1058       C  0.12101572  0.61242387  0.50219598     0.70000
O1059       O  0.12666609  0.62033220  0.49487997    -0.46900
C1060       C  0.13765657  0.58820846  0.47607938     0.74700
O1061       O  0.14841028  0.62415115  0.47843769    -0.58700
O1062       O  0.14464087  0.58664993  0.48593195    -0.48800
O1063       O  0.16181951  0.60889689  0.48033571    -0.55200
C1064       C  0.15861349  0.60999035  0.51234458     0.84900
O1065       O  0.12696694  0.60200106  0.50388115    -0.57100
O1066       O  0.13364252  0.59953270  0.47448675    -0.60400
In1067     In  0.25343342  0.66027966  0.61123295     1.36900
C1068       C  0.23780382  0.64737476  0.59555303     0.77300
O1069       O  0.23614483  0.66786301  0.62139997    -0.61100
O1070       O  0.24764465  0.68119305  0.61107028    -0.52000
C1071       C  0.26410473  0.65548096  0.63401758     0.70000
O1072       O  0.25619414  0.64784438  0.62879765    -0.46900
C1073       C  0.27434732  0.65825659  0.59671968     0.74700
O1074       O  0.24095064  0.64306738  0.60650679    -0.58700
O1075       O  0.26801821  0.66861443  0.59737447    -0.48800
O1076       O  0.24263777  0.65813390  0.59284289    -0.55200
C1077       C  0.23772011  0.67933619  0.61784047     0.84900
O1078       O  0.26637483  0.66552376  0.62758244    -0.57100
O1079       O  0.27004367  0.64927178  0.60362625    -0.60400
In1080     In  0.37307340  0.60743877  0.50172898     1.36900
C1081       C  0.35819390  0.61935105  0.51886952     0.77300
O1082       O  0.36285584  0.61990439  0.48760000    -0.61100
O1083       O  0.36013257  0.59971725  0.48606674    -0.52000
C1084       C  0.39561483  0.61305926  0.49070264     0.70000
O1085       O  0.39095876  0.61967813  0.49979050    -0.46900
C1086       C  0.37917332  0.58717977  0.51615507     0.74700
O1087       O  0.36897485  0.62384182  0.51549962    -0.58700
O1088       O  0.37192459  0.58620690  0.50642984    -0.48800
O1089       O  0.35529338  0.60883590  0.51358618    -0.55200
C1090       C  0.35731662  0.61076645  0.48184234     0.84900
O1091       O  0.38871954  0.60366166  0.48735058    -0.57100
O1092       O  0.38350099  0.59832742  0.51807340    -0.60400
In1093     In  0.66098817  0.12470764  0.75153102     1.36900
C1094       C  0.65010148  0.10878001  0.76836608     0.77300
O1095       O  0.64879044  0.11534989  0.73678101    -0.61100
O1096       O  0.66888924  0.11158383  0.73622170    -0.52000
C1097       C  0.65483949  0.14653290  0.73975295     0.70000
O1098       O  0.64792197  0.14175000  0.74856763    -0.46900
C1099       C  0.68038182  0.13281047  0.76597894     0.74700
O1100       O  0.64512130  0.11947722  0.76540541    -0.58700
O1101       O  0.68208019  0.12544648  0.75641582    -0.48800
O1102       O  0.66061340  0.10646368  0.76281938    -0.55200
C1103       C  0.65791852  0.10947410  0.73139286     0.84900
O1104       O  0.66486940  0.14021447  0.73724747    -0.57100
O1105       O  0.66888531  0.13610550  0.76782598    -0.60400
In1106     In  0.60781856  0.00330633  0.86124192     1.36900
C1107       C  0.61990604  0.98673786  0.84598724     0.77300
O1108       O  0.59955608  0.98628190  0.87132199    -0.61100
O1109       O  0.58673396  0.99801475  0.86063925    -0.52000
C1110       C  0.61338392  0.01423628  0.88387485     0.70000
O1111       O  0.62077790  0.00623786  0.87848384    -0.46900
C1112       C  0.61129248  0.02368868  0.84612404     0.74700
O1113       O  0.62399009  0.98949040  0.85714039    -0.58700
O1114       O  0.60025643  0.01889895  0.84793413    -0.48800
O1115       O  0.60968098  0.99239269  0.84284324    -0.55200
C1116       C  0.58821035  0.98807813  0.86750818     0.84900
O1117       O  0.60313427  0.01639111  0.87775299    -0.57100
O1118       O  0.62016901  0.01820837  0.85227371    -0.60400
In1119     In  0.66146059  0.89388383  0.74188953     1.36900
C1120       C  0.64970457  0.90987026  0.72584305     0.77300
O1121       O  0.64925504  0.90295925  0.75684619    -0.61100
O1122       O  0.66940339  0.90599275  0.75810379    -0.52000
C1123       C  0.65598583  0.87115861  0.75199212     0.70000
O1124       O  0.64895386  0.87631255  0.74350639    -0.46900
C1125       C  0.68101730  0.88719317  0.72697439     0.74700
O1126       O  0.64458898  0.89944936  0.72946653    -0.58700
O1127       O  0.68243585  0.89457557  0.73656964    -0.48800
O1128       O  0.66082748  0.91180466  0.73022262    -0.55200
C1129       C  0.65839673  0.90835539  0.76268795     0.84900
O1130       O  0.66576224  0.87762695  0.75508677    -0.57100
O1131       O  0.66970183  0.88321666  0.72527578    -0.60400
In1132     In  0.60711260  0.01472732  0.63319971     1.36900
C1133       C  0.61899997  0.03166559  0.64801010     0.77300
O1134       O  0.59933766  0.03158058  0.62249937    -0.61100
O1135       O  0.58600565  0.01997636  0.63272867    -0.52000
C1136       C  0.61268049  0.00338161  0.61097511     0.70000
O1137       O  0.61990860  0.01175864  0.61601432    -0.46900
C1138       C  0.61063987  0.99494446  0.64903983     0.74700
O1139       O  0.62387657  0.02758759  0.63761770    -0.58700
O1140       O  0.59957731  0.99949875  0.64685860    -0.48800
O1141       O  0.60805163  0.02716884  0.65059460    -0.55200
C1142       C  0.58780487  0.02978524  0.62572966     0.84900
O1143       O  0.60260867  0.00098637  0.61729135    -0.57100
O1144       O  0.61956771  0.00037505  0.64293003    -0.60400
In1145     In  0.90999789  0.01460143  0.36093466     1.36900
C1146       C  0.89784887  0.03118851  0.34567742     0.77300
O1147       O  0.91833153  0.03164847  0.37086324    -0.61100
O1148       O  0.93096677  0.02007960  0.35973922    -0.52000
C1149       C  0.90446916  0.00376933  0.38357825     0.70000
O1150       O  0.89677693  0.01115012  0.37776058    -0.46900
C1151       C  0.90714136  0.99379063  0.34643404     0.74700
O1152       O  0.89373156  0.02840212  0.35680478    -0.58700
O1153       O  0.91807716  0.99864477  0.34857761    -0.48800
O1154       O  0.90800507  0.02541685  0.34251189    -0.55200
C1155       C  0.92957691  0.02997855  0.36668988     0.84900
O1156       O  0.91510595  0.00227928  0.37796000    -0.57100
O1157       O  0.89795390  0.99955670  0.35179953    -0.60400
In1158     In  0.85633330  0.12418237  0.24072669     1.36900
C1159       C  0.86783305  0.10891942  0.22374005     0.77300
O1160       O  0.86871070  0.11446891  0.25522202    -0.61100
O1161       O  0.84862951  0.11113334  0.25638440    -0.52000
C1162       C  0.86211290  0.14683292  0.25121051     0.70000
O1163       O  0.86857144  0.14200292  0.24210180    -0.46900
C1164       C  0.83649583  0.13112266  0.22622363     0.74700
O1165       O  0.87319158  0.11892653  0.22812390    -0.58700
O1166       O  0.83516487  0.12403514  0.23604275    -0.48800
O1167       O  0.85666056  0.10695753  0.22796644    -0.55200
C1168       C  0.85966456  0.10874982  0.26089628     0.84900
O1169       O  0.85272700  0.14006650  0.25482846    -0.57100
O1170       O  0.84784669  0.13479488  0.22416905    -0.60400
In1171     In  0.85756490  0.89450526  0.25206123     1.36900
C1172       C  0.86949853  0.90954096  0.26892651     0.77300
O1173       O  0.86968462  0.90300904  0.23663332    -0.61100
O1174       O  0.84998084  0.90819955  0.23690478    -0.52000
C1175       C  0.86325603  0.87181480  0.24192182     0.70000
O1176       O  0.87024453  0.87719612  0.25030062    -0.46900
C1177       C  0.83787215  0.88735031  0.26673939     0.74700
O1178       O  0.87441107  0.89920531  0.26485327    -0.58700
O1179       O  0.83636406  0.89418806  0.25676513    -0.48800
O1180       O  0.85856776  0.91202911  0.26436179    -0.55200
C1181       C  0.86083636  0.90954765  0.23160170     0.84900
O1182       O  0.85339197  0.87811458  0.23876509    -0.57100
O1183       O  0.84932162  0.88407577  0.26887448    -0.60400
In1184     In  0.91042193  0.00374964  0.13158376     1.36900
C1185       C  0.89918700  0.98682594  0.14687562     0.77300
O1186       O  0.91867329  0.98728683  0.12091960    -0.61100
O1187       O  0.93130335  0.99838671  0.13265842    -0.52000
C1188       C  0.90553405  0.01387302  0.10876337     0.70000
O1189       O  0.89799427  0.00593855  0.11406035    -0.46900
C1190       C  0.90650285  0.02435665  0.14610501     0.74700
O1191       O  0.89419802  0.99031628  0.13631914    -0.58700
O1192       O  0.91767481  0.02011918  0.14388615    -0.48800
O1193       O  0.90981825  0.99203427  0.14944328    -0.55200
C1194       C  0.92989273  0.98883624  0.12521383     0.84900
O1195       O  0.91554455  0.01640241  0.11513220    -0.57100
O1196       O  0.89760787  0.01820320  0.14063444    -0.60400
In1197     In  0.75290008  0.85894250  0.38217132     1.36900
C1198       C  0.73618697  0.87105903  0.39723180     0.77300
O1199       O  0.73585471  0.85063895  0.37218230    -0.61100
O1200       O  0.74759133  0.83783580  0.38288092    -0.52000
C1201       C  0.76379976  0.86418691  0.35953554     0.70000
O1202       O  0.75606642  0.87185449  0.36492496    -0.46900
C1203       C  0.77329910  0.86186502  0.39728572     0.74700
O1204       O  0.73931968  0.87534579  0.38626094    -0.58700
O1205       O  0.76860736  0.85090812  0.39485083    -0.48800
O1206       O  0.74167294  0.86072193  0.40035133    -0.55200
C1207       C  0.73764668  0.83929074  0.37603404     0.84900
O1208       O  0.76571575  0.85391850  0.36568721    -0.57100
O1209       O  0.76768445  0.87106867  0.39176695    -0.60400
In1210     In  0.64379673  0.91100032  0.50224537     1.36900
C1211       C  0.65950978  0.89895543  0.51830319     0.77300
O1212       O  0.65280984  0.89908433  0.48699506    -0.61100
O1213       O  0.65584358  0.91926017  0.48609914    -0.52000
C1214       C  0.62097367  0.90545669  0.49213673     0.70000
O1215       O  0.62679823  0.89786742  0.49963389    -0.46900
C1216       C  0.63800257  0.93020650  0.51802575     0.74700
O1217       O  0.64860008  0.89446326  0.51539041    -0.58700
O1218       O  0.64473346  0.93188577  0.50801653    -0.48800
O1219       O  0.66218463  0.90953572  0.51304055    -0.55200
C1220       C  0.65810991  0.90833341  0.48124114     0.84900
O1221       O  0.62677026  0.91590882  0.49007148    -0.57100
O1222       O  0.63403805  0.91886238  0.51958845    -0.60400
In1223     In  0.87217217  0.91140327  0.49244255     1.36900
C1224       C  0.85661021  0.89922133  0.47625428     0.77300
O1225       O  0.86309870  0.89971285  0.50794027    -0.61100
O1226       O  0.85947711  0.91980398  0.50795180    -0.52000
C1227       C  0.89476960  0.90580867  0.50299090     0.70000
O1228       O  0.88928758  0.89842226  0.49501963    -0.46900
C1229       C  0.87842480  0.93073452  0.47685433     0.74700
O1230       O  0.86743749  0.89470219  0.47938595    -0.58700
O1231       O  0.87148597  0.93234812  0.48672455    -0.48800
O1232       O  0.85394701  0.90986922  0.48137664    -0.55200
C1233       C  0.85734175  0.90901670  0.51315123     0.84900
O1234       O  0.88872441  0.91605203  0.50534957    -0.57100
O1235       O  0.88239245  0.91939024  0.47533119    -0.60400
In1236     In  0.76324557  0.85657403  0.61089335     1.36900
C1237       C  0.77927083  0.86957112  0.59580420     0.77300
O1238       O  0.78005194  0.84837343  0.62118654    -0.61100
O1239       O  0.76874803  0.83559677  0.60991604    -0.52000
C1240       C  0.75249006  0.86136292  0.63356097     0.70000
O1241       O  0.76109664  0.86847874  0.62878030    -0.46900
C1242       C  0.74287047  0.85967616  0.59601310     0.74700
O1243       O  0.77557662  0.87388940  0.60657815    -0.58700
O1244       O  0.74815348  0.84881627  0.59740824    -0.48800
O1245       O  0.77486751  0.85863978  0.59298516    -0.55200
C1246       C  0.77848277  0.83708495  0.61705701     0.84900
O1247       O  0.74957674  0.85170946  0.62678209    -0.57100
O1248       O  0.74783025  0.86862036  0.60252763    -0.60400
C1249       C  0.84855031  0.90716318  0.52419101    -0.03600
C1250       C  0.84761432  0.89502230  0.53004247    -0.09400
C1251       C  0.83873700  0.89282796  0.53987278    -0.17000
C1252       C  0.83062312  0.90270134  0.54401569     0.25100
C1253       C  0.83160102  0.91490605  0.53839096    -0.18700
C1254       C  0.84055457  0.91714573  0.52854507    -0.07600
C1255       C  0.82109226  0.89995278  0.55371733    -0.14000
C1256       C  0.81336695  0.89608040  0.56147644    -0.13800
C1257       C  0.80454388  0.88974033  0.57010130     0.25000
C1258       C  0.80025087  0.89574865  0.58139803    -0.19200
C1259       C  0.79201005  0.88922149  0.58984529    -0.07600
C1260       C  0.78798258  0.87662210  0.58705208    -0.03700
C1261       C  0.79228643  0.87072309  0.57565578    -0.09000
C1262       C  0.80051150  0.87722567  0.56727399    -0.16700
H1263       H  0.85363301  0.88714576  0.52689689     0.11500
H1264       H  0.83806863  0.88334381  0.54411969     0.10800
H1265       H  0.82534137  0.92262209  0.54147893     0.10700
H1266       H  0.84102919  0.92656316  0.52415578     0.11200
H1267       H  0.80332274  0.90542707  0.58371101     0.11300
H1268       H  0.78879679  0.89400403  0.59852957     0.11200
H1269       H  0.78934674  0.86103312  0.57323761     0.11400
H1270       H  0.80379352  0.87244862  0.55860056     0.10200
C1271       C  0.73202676  0.86204165  0.58719694    -0.03600
C1272       C  0.72725201  0.85226906  0.57916048    -0.09400
C1273       C  0.71754251  0.85495543  0.57022775    -0.17000
C1274       C  0.71253111  0.86740343  0.56930070     0.25100
C1275       C  0.71712760  0.87710589  0.57740374    -0.18700
C1276       C  0.72679496  0.87445420  0.58629884    -0.07600
C1277       C  0.70287038  0.87048274  0.55991730    -0.14000
C1278       C  0.69502691  0.87433039  0.55232106    -0.13800
C1279       C  0.68610609  0.88024339  0.54358772     0.25000
C1280       C  0.67410750  0.87466087  0.54120923    -0.19200
C1281       C  0.66536934  0.88072943  0.53297293    -0.07600
C1282       C  0.66856847  0.89244979  0.52707046    -0.03700
C1283       C  0.68064130  0.89797293  0.52953596    -0.09000
C1284       C  0.68934249  0.89190155  0.53773683    -0.16700
H1285       H  0.73116429  0.84264828  0.57963257     0.11500
H1286       H  0.71405450  0.84738339  0.56396589     0.10800
H1287       H  0.71333585  0.88677084  0.57674604     0.10700
H1288       H  0.73030729  0.88218117  0.59234023     0.11200
H1289       H  0.67149229  0.86566709  0.54575685     0.11300
H1290       H  0.65612743  0.87628466  0.53124118     0.11200
H1291       H  0.68336745  0.90699620  0.52512891     0.11400
H1292       H  0.69857418  0.89633646  0.53956566     0.10200
C1293       C  0.78424411  0.86400129  0.40610990    -0.03600
C1294       C  0.78848276  0.87659813  0.40855074    -0.09400
C1295       C  0.79832155  0.87891340  0.41737317    -0.17000
C1296       C  0.80411851  0.86869520  0.42388197     0.25100
C1297       C  0.80011448  0.85607322  0.42139921    -0.18700
C1298       C  0.79021638  0.85372497  0.41253875    -0.07600
C1299       C  0.81392938  0.87141919  0.43327742    -0.14000
C1300       C  0.82173499  0.87507503  0.44104842    -0.13800
C1301       C  0.83047636  0.88080588  0.45014646     0.25000
C1302       C  0.84260353  0.87544279  0.45234903    -0.19200
C1303       C  0.85114919  0.88135581  0.46093071    -0.07600
C1304       C  0.84765242  0.89272490  0.46733881    -0.03700
C1305       C  0.83543505  0.89800247  0.46510119    -0.09000
C1306       C  0.82691867  0.89207430  0.45657221    -0.16700
H1307       H  0.78406315  0.88471334  0.40376945     0.11500
H1308       H  0.80131723  0.88871360  0.41922617     0.10800
H1309       H  0.80453166  0.84808442  0.42639750     0.10700
H1310       H  0.78712731  0.84393622  0.41084776     0.11200
H1311       H  0.84547855  0.86675301  0.44737851     0.11300
H1312       H  0.86050950  0.87710876  0.46247339     0.11200
H1313       H  0.83246634  0.90673681  0.46991572     0.11400
H1314       H  0.81758008  0.89633971  0.45491884     0.10200
C1315       C  0.72683020  0.87744435  0.40582925    -0.03600
C1316       C  0.72343699  0.87165507  0.41758502    -0.09400
C1317       C  0.71458825  0.87751626  0.42580427    -0.17000
C1318       C  0.70901224  0.88926927  0.42243677     0.25100
C1319       C  0.71230544  0.89511525  0.41073691    -0.18700
C1320       C  0.72116980  0.88923332  0.40246040    -0.07600
C1321       C  0.69988468  0.89513257  0.43106536    -0.14000
C1322       C  0.69228415  0.89886117  0.43900747    -0.13800
C1323       C  0.68330471  0.90157149  0.44921854     0.25000
C1324       C  0.67776103  0.89130825  0.45588367    -0.19200
C1325       C  0.66941606  0.89360480  0.46613071    -0.07600
C1326       C  0.66650131  0.90623306  0.46994527    -0.03700
C1327       C  0.67198077  0.91655430  0.46314607    -0.09000
C1328       C  0.68034595  0.91422107  0.45280669    -0.16700
H1329       H  0.72760275  0.86255983  0.42042990     0.11500
H1330       H  0.71209205  0.87287127  0.43479704     0.10800
H1331       H  0.70802621  0.90420049  0.40801272     0.10700
H1332       H  0.72360383  0.89389228  0.39346240     0.11200
H1333       H  0.68000414  0.88148849  0.45324339     0.11300
H1334       H  0.66539008  0.88545465  0.47120168     0.11200
H1335       H  0.66989371  0.92636824  0.46588610     0.11400
H1336       H  0.68459772  0.92225154  0.44772177     0.10200
C1337       C  0.77031087  0.86691624  0.34713842    -0.03600
C1338       C  0.77868798  0.85775792  0.34180798    -0.09400
C1339       C  0.78532218  0.86034003  0.33039902    -0.17000
C1340       C  0.78370756  0.87210274  0.32409424     0.25100
C1341       C  0.77525418  0.88125169  0.32923146    -0.18700
C1342       C  0.76857096  0.87867104  0.34068656    -0.07600
C1343       C  0.79119955  0.87484603  0.31270373    -0.14000
C1344       C  0.79834423  0.87665417  0.30370353    -0.13800
C1345       C  0.80790420  0.87856539  0.29380063     0.25000
C1346       C  0.80503944  0.88545860  0.28256071    -0.19200
C1347       C  0.81468005  0.88802573  0.27348140    -0.07600
C1348       C  0.82730061  0.88373401  0.27556967    -0.03700
C1349       C  0.82997411  0.87646306  0.28667286    -0.09000
C1350       C  0.82035841  0.87392043  0.29570679    -0.16700
H1351       H  0.78023691  0.84862370  0.34654330     0.11500
H1352       H  0.79186206  0.85319745  0.32657752     0.10800
H1353       H  0.77395220  0.89042018  0.32448398     0.10700
H1354       H  0.76219537  0.88590688  0.34457544     0.11200
H1355       H  0.79542595  0.88907716  0.28094227     0.11300
H1356       H  0.81234227  0.89361147  0.26500275     0.11200
H1357       H  0.83958498  0.87299105  0.28854333     0.11400
H1358       H  0.82271385  0.86855217  0.30432945     0.10200
C1359       C  0.86329443  0.91818320  0.22055549    -0.03600
C1360       C  0.87566883  0.91875748  0.21518143    -0.09400
C1361       C  0.87836880  0.92717674  0.20508440    -0.17000
C1362       C  0.86876643  0.93516343  0.20017881     0.25100
C1363       C  0.85636802  0.93463229  0.20538787    -0.18700
C1364       C  0.85362935  0.92616227  0.21553210    -0.07600
C1365       C  0.87192591  0.94406872  0.19005030    -0.14000
C1366       C  0.87581055  0.95140639  0.18195016    -0.13800
C1367       C  0.88163674  0.96014327  0.17293119     0.25000
C1368       C  0.89362924  0.96548984  0.17577699    -0.19200
C1369       C  0.89935679  0.97409444  0.16721696    -0.07600
C1370       C  0.89315721  0.97747253  0.15567390    -0.03700
C1371       C  0.88118227  0.97196138  0.15278518    -0.09000
C1372       C  0.87545134  0.96333229  0.16138602    -0.16700
H1373       H  0.88332519  0.91276377  0.21885926     0.11500
H1374       H  0.88800131  0.92753649  0.20117323     0.10800
H1375       H  0.84887214  0.94082034  0.20169457     0.10700
H1376       H  0.84403818  0.92595497  0.21953080     0.11200
H1377       H  0.89853079  0.96305139  0.18464778     0.11300
H1378       H  0.90860965  0.97815808  0.16967528     0.11200
H1379       H  0.87623011  0.97438166  0.14393960     0.11400
H1380       H  0.86618610  0.95920116  0.15906405     0.10200
C1381       C  0.90380220  0.03538279  0.15467267    -0.03600
C1382       C  0.89103069  0.03834540  0.15787099    -0.09400
C1383       C  0.88827533  0.04831825  0.16643138    -0.17000
C1384       C  0.89820952  0.05554930  0.17188049     0.25100
C1385       C  0.91097228  0.05279117  0.16863601    -0.18700
C1386       C  0.91376568  0.04273617  0.16007984    -0.07600
C1387       C  0.89512293  0.06562970  0.18090208    -0.14000
C1388       C  0.89136663  0.07365738  0.18841074    -0.13800
C1389       C  0.88561163  0.08266454  0.19725318     0.25000
C1390       C  0.89278443  0.09275949  0.20256379    -0.19200
C1391       C  0.88701741  0.10143074  0.21113197    -0.07600
C1392       C  0.87402237  0.10004799  0.21450058    -0.03700
C1393       C  0.86691639  0.08988403  0.20911630    -0.09000
C1394       C  0.87266462  0.08128540  0.20054387    -0.16700
H1395       H  0.88315551  0.03282433  0.15390464     0.11500
H1396       H  0.87836570  0.05033077  0.16887905     0.10800
H1397       H  0.91874773  0.05832954  0.17278922     0.10700
H1398       H  0.92368078  0.04065621  0.15776931     0.11200
H1399       H  0.90282063  0.09391802  0.20009967     0.11300
H1400       H  0.89272215  0.10913479  0.21518851     0.11200
H1401       H  0.85688929  0.08857434  0.21152629     0.11400
H1402       H  0.86700572  0.07353534  0.19649532     0.10200
C1403       C  0.90121906  0.99716994  0.39581556    -0.03600
C1404       C  0.88878858  0.99802927  0.40101770    -0.09400
C1405       C  0.88557969  0.99135270  0.41228875    -0.17000
C1406       C  0.89475689  0.98376325  0.41854684     0.25100
C1407       C  0.90718956  0.98294667  0.41348121    -0.18700
C1408       C  0.91040360  0.98958165  0.40219481    -0.07600
C1409       C  0.89133945  0.97638170  0.42983263    -0.14000
C1410       C  0.88883560  0.96943800  0.43882762    -0.13800
C1411       C  0.88644923  0.96004655  0.44879481     0.25000
C1412       C  0.87821151  0.96270929  0.45914474    -0.19200
C1413       C  0.87574717  0.95328008  0.46849164    -0.07600
C1414       C  0.88147359  0.94107792  0.46754472    -0.03700
C1415       C  0.88981186  0.93856948  0.45719772    -0.09000
C1416       C  0.89227876  0.94797540  0.44792723    -0.16700
H1417       H  0.88149135  0.00372235  0.39626963     0.11500
H1418       H  0.87590090  0.99200109  0.41604041     0.10800
H1419       H  0.91436716  0.97705653  0.41817357     0.10700
H1420       H  0.92003711  0.98868836  0.39840424     0.11200
H1421       H  0.87360612  0.97200518  0.45992412     0.11300
H1422       H  0.86923211  0.95544977  0.47631552     0.11200
H1423       H  0.89434645  0.92926349  0.45618445     0.11400
H1424       H  0.89865453  0.94577541  0.43997951     0.10200
C1425       C  0.87588470  0.91812405  0.27828311    -0.03600
C1426       C  0.88840795  0.91562120  0.28265205    -0.09400
C1427       C  0.89432040  0.92390391  0.29150165    -0.17000
C1428       C  0.88775118  0.93472840  0.29606128     0.25100
C1429       C  0.87528612  0.93723655  0.29175616    -0.18700
C1430       C  0.86939459  0.92901761  0.28292237    -0.07600
C1431       C  0.89362595  0.94337748  0.30514510    -0.14000
C1432       C  0.89732995  0.95134395  0.31272566    -0.13800
C1433       C  0.90015947  0.96154071  0.32166200     0.25000
C1434       C  0.89012728  0.96708888  0.32865857    -0.19200
C1435       C  0.89251236  0.97744199  0.33685874    -0.07600
C1436       C  0.90498900  0.98241963  0.33818833    -0.03700
C1437       C  0.91509021  0.97668899  0.33129634    -0.09000
C1438       C  0.91266679  0.96629967  0.32303944    -0.16700
H1439       H  0.89362331  0.90730235  0.27920710     0.11500
H1440       H  0.90397568  0.92187756  0.29477193     0.10800
H1441       H  0.87010689  0.94557648  0.29522964     0.10700
H1442       H  0.85973916  0.93118247  0.27974053     0.11200
H1443       H  0.88041043  0.96352345  0.32763855     0.11300
H1444       H  0.88454052  0.98164982  0.34204866     0.11200
H1445       H  0.92477648  0.98035866  0.33213357     0.11400
H1446       H  0.92049768  0.96209858  0.31761601     0.10200
C1447       C  0.89149023  0.04045796  0.33693434    -0.03600
C1448       C  0.87973263  0.04624744  0.34017923    -0.09400
C1449       C  0.87386322  0.05493858  0.33168317    -0.17000
C1450       C  0.87970027  0.05794053  0.31988502     0.25100
C1451       C  0.89144060  0.05226767  0.31668178    -0.18700
C1452       C  0.89727698  0.04359442  0.32510630    -0.07600
C1453       C  0.87383988  0.06681572  0.31094845    -0.14000
C1454       C  0.87010146  0.07416097  0.30274527    -0.13800
C1455       C  0.86718989  0.08293783  0.29236709     0.25000
C1456       C  0.87726560  0.08910444  0.28596077    -0.19200
C1457       C  0.87473871  0.09751371  0.27579281    -0.07600
C1458       C  0.86206076  0.09990874  0.27181921    -0.03700
C1459       C  0.85194291  0.09366684  0.27824752    -0.09000
C1460       C  0.85450335  0.08522481  0.28847895    -0.16700
H1461       H  0.87507140  0.04402036  0.34923051     0.11500
H1462       H  0.86479264  0.05928698  0.33430134     0.10800
H1463       H  0.89609269  0.05453287  0.30762634     0.10700
H1464       H  0.90635176  0.03934327  0.32234913     0.11200
H1465       H  0.88711963  0.08738242  0.28880856     0.11300
H1466       H  0.88274449  0.10211052  0.27100077     0.11200
H1467       H  0.84209614  0.09529149  0.27535730     0.11400
H1468       H  0.84661279  0.08046994  0.29331686     0.10200
C1469       C  0.61574079  0.99676953  0.59874315    -0.03600
C1470       C  0.60722050  0.98759032  0.59366223    -0.09400
C1471       C  0.61020302  0.98102417  0.58230060    -0.17000
C1472       C  0.62173082  0.98353482  0.57585879     0.25100
C1473       C  0.63022082  0.99275147  0.58077616    -0.18700
C1474       C  0.62724536  0.99934872  0.59215479    -0.07600
C1475       C  0.62504619  0.97616451  0.56458613    -0.14000
C1476       C  0.62754154  0.96910206  0.55571058    -0.13800
C1477       C  0.63005559  0.95956887  0.54596422     0.25000
C1478       C  0.63742525  0.96250565  0.53506049    -0.19200
C1479       C  0.63995135  0.95300761  0.52581550    -0.07600
C1480       C  0.63511556  0.94049288  0.52741404    -0.03700
C1481       C  0.62771045  0.93767575  0.53837779    -0.09000
C1482       C  0.62520872  0.94714266  0.54756677    -0.16700
H1483       H  0.59830010  0.98539162  0.59853633     0.11500
H1484       H  0.60359037  0.97386604  0.57863104     0.10800
H1485       H  0.63920541  0.99472106  0.57590866     0.10700
H1486       H  0.63399111  0.00635074  0.59586861     0.11200
H1487       H  0.64126668  0.97208927  0.53374459     0.11300
H1488       H  0.64574138  0.95541081  0.51749688     0.11200
H1489       H  0.62391427  0.92811200  0.53991057     0.11400
H1490       H  0.61953669  0.94474093  0.55598207     0.10200
C1491       C  0.69155605  0.88362447  0.71814608    -0.03600
C1492       C  0.70383973  0.88910693  0.71934488    -0.09400
C1493       C  0.71343028  0.88625520  0.71030969    -0.17000
C1494       C  0.71082299  0.87787053  0.70005950     0.25100
C1495       C  0.69871921  0.87216409  0.69902937    -0.18700
C1496       C  0.68915850  0.87500858  0.70798846    -0.07600
C1497       C  0.72019906  0.87545063  0.69016533    -0.14000
C1498       C  0.72689942  0.87306478  0.68099727    -0.13800
C1499       C  0.73370786  0.86988503  0.66935089     0.25000
C1500       C  0.72952097  0.85957953  0.66175364    -0.19200
C1501       C  0.73573116  0.85671148  0.65016564    -0.07600
C1502       C  0.74618735  0.86417136  0.64600011    -0.03700
C1503       C  0.75037050  0.87447657  0.65369947    -0.09000
C1504       C  0.74416676  0.87730696  0.66531826    -0.16700
H1505       H  0.70593247  0.89577754  0.72707446     0.11500
H1506       H  0.72277072  0.89074691  0.71118783     0.10800
H1507       H  0.69658670  0.86567766  0.69113586     0.10700
H1508       H  0.67980393  0.87061960  0.70682709     0.11200
H1509       H  0.72137571  0.85382940  0.66473037     0.11300
H1510       H  0.73226005  0.84876310  0.64440006     0.11200
H1511       H  0.75839284  0.88038434  0.65070575     0.11400
H1512       H  0.74744544  0.88534595  0.67108478     0.10200
C1513       C  0.64329217  0.91923220  0.71729137    -0.03600
C1514       C  0.63036659  0.91771824  0.71371022    -0.09400
C1515       C  0.62442845  0.92676547  0.70567986    -0.17000
C1516       C  0.63136000  0.93738231  0.70113932     0.25100
C1517       C  0.64419834  0.93896333  0.70475643    -0.18700
C1518       C  0.65011682  0.92998568  0.71278741    -0.07600
C1519       C  0.62555575  0.94656355  0.69252150    -0.14000
C1520       C  0.62181443  0.95459681  0.68501897    -0.13800
C1521       C  0.61874457  0.96452005  0.67582296     0.25000
C1522       C  0.62866653  0.97046830  0.66898635    -0.19200
C1523       C  0.62594565  0.98025339  0.66020397    -0.07600
C1524       C  0.61322721  0.98427911  0.65811275    -0.03700
C1525       C  0.60327224  0.97822714  0.66494901    -0.09000
C1526       C  0.60602589  0.96838687  0.67375892    -0.16700
H1527       H  0.62486521  0.90957659  0.71713047     0.11500
H1528       H  0.61447850  0.92544409  0.70296030     0.10800
H1529       H  0.64967337  0.94711899  0.70130240     0.10700
H1530       H  0.66007100  0.93142957  0.71541412     0.11200
H1531       H  0.63854260  0.96758837  0.67049718     0.11300
H1532       H  0.63383062  0.98473942  0.65511960     0.11200
H1533       H  0.59340090  0.98115019  0.66354202     0.11400
H1534       H  0.59825985  0.96385575  0.67900265     0.10200
C1535       C  0.65611835  0.91705986  0.77370035    -0.03600
C1536       C  0.66634494  0.92275163  0.78045935    -0.09400
C1537       C  0.66390691  0.93155203  0.79040073    -0.17000
C1538       C  0.65124230  0.93473404  0.79363089     0.25100
C1539       C  0.64105704  0.92899826  0.78700206    -0.18700
C1540       C  0.64345841  0.92020791  0.77714568    -0.07600
C1541       C  0.64846162  0.94399125  0.80356537    -0.14000
C1542       C  0.64470978  0.95165509  0.81143282    -0.13800
C1543       C  0.63878067  0.96064761  0.82014509     0.25000
C1544       C  0.62769893  0.96716852  0.81627252    -0.19200
C1545       C  0.62158528  0.97563603  0.82471560    -0.07600
C1546       C  0.62647718  0.97771823  0.83717573    -0.03700
C1547       C  0.63763402  0.97116730  0.84100955    -0.09000
C1548       C  0.64374263  0.96265688  0.83253120    -0.16700
H1549       H  0.67618069  0.92050439  0.77797466     0.11500
H1550       H  0.67187181  0.93594743  0.79547048     0.10800
H1551       H  0.63122344  0.93140974  0.78938380     0.10700
H1552       H  0.63538532  0.91603707  0.77207444     0.11200
H1553       H  0.62373930  0.96565481  0.80674029     0.11300
H1554       H  0.61301413  0.98055168  0.82148260     0.11200
H1555       H  0.64159373  0.97258917  0.85055209     0.11400
H1556       H  0.65228323  0.95760897  0.83565271     0.10200
C1557       C  0.65568146  0.10068831  0.72046300    -0.03600
C1558       C  0.66547246  0.09264466  0.71581709    -0.09400
C1559       C  0.66295364  0.08393108  0.70583443    -0.17000
C1560       C  0.65066946  0.08326410  0.70039233     0.25100
C1561       C  0.64094330  0.09133919  0.70490403    -0.18700
C1562       C  0.64341468  0.09998017  0.71487420    -0.07600
C1563       C  0.64774771  0.07412051  0.69042723    -0.14000
C1564       C  0.64390730  0.06663621  0.68244845    -0.13800
C1565       C  0.63780464  0.05793153  0.67360077     0.25000
C1566       C  0.62478699  0.05507634  0.67519439    -0.19200
C1567       C  0.61868254  0.04657043  0.66679582    -0.07600
C1568       C  0.62551243  0.04086900  0.65661932    -0.03700
C1569       C  0.63856943  0.04384306  0.65498899    -0.09000
C1570       C  0.64470160  0.05232110  0.66347903    -0.16700
H1571       H  0.67497341  0.09295234  0.72002653     0.11500
H1572       H  0.67052975  0.07765618  0.70244844     0.10800
H1573       H  0.63139510  0.09086901  0.70079216     0.10700
H1574       H  0.63568708  0.10604976  0.71826944     0.11200
H1575       H  0.61935529  0.05939786  0.68297386     0.11300
H1576       H  0.60861059  0.04446590  0.66825734     0.11200
H1577       H  0.64405189  0.03950694  0.64726094     0.11400
H1578       H  0.65478818  0.05446739  0.66217630     0.10200
C1579       C  0.61397409  0.03462528  0.83737289    -0.03600
C1580       C  0.62659065  0.03933180  0.83637746    -0.09400
C1581       C  0.62958434  0.04921900  0.82780578    -0.17000
C1582       C  0.62004636  0.05462398  0.82004588     0.25100
C1583       C  0.60738683  0.05010543  0.82101960    -0.18700
C1584       C  0.60435006  0.04015516  0.82965351    -0.07600
C1585       C  0.62351059  0.06459088  0.81098569    -0.14000
C1586       C  0.62747304  0.07261907  0.80355477    -0.13800
C1587       C  0.63306976  0.08178584  0.79471935     0.25000
C1588       C  0.62740046  0.09384192  0.79279741    -0.19200
C1589       C  0.63290727  0.10266961  0.78421886    -0.07600
C1590       C  0.64419587  0.09956773  0.77749684    -0.03700
C1591       C  0.64985078  0.08745919  0.77951690    -0.09000
C1592       C  0.64432331  0.07865101  0.78805460    -0.16700
H1593       H  0.63423052  0.03527386  0.84216109     0.11500
H1594       H  0.63940785  0.05258057  0.82715330     0.10800
H1595       H  0.59990649  0.05418387  0.81504618     0.10700
H1596       H  0.59456969  0.03669412  0.83017504     0.11200
H1597       H  0.61871930  0.09641762  0.79792221     0.11300
H1598       H  0.62835588  0.11192336  0.78286178     0.11200
H1599       H  0.65852906  0.08477186  0.77446489     0.11400
H1600       H  0.64883764  0.06938125  0.78945405     0.10200
C1601       C  0.34946499  0.62577326  0.52811046    -0.03600
C1602       C  0.33696319  0.62099037  0.52990652    -0.09400
C1603       C  0.32856145  0.62691256  0.53855850    -0.17000
C1604       C  0.33251034  0.63768410  0.54560076     0.25100
C1605       C  0.34495222  0.64252722  0.54389225    -0.18700
C1606       C  0.35337934  0.63663276  0.53516066    -0.07600
C1607       C  0.32376968  0.64353690  0.55466748    -0.14000
C1608       C  0.31594780  0.64756302  0.56225949    -0.13800
C1609       C  0.30613982  0.65107979  0.57143338     0.25000
C1610       C  0.29843189  0.66195542  0.56950234    -0.19200
C1611       C  0.28830086  0.66466646  0.57799212    -0.07600
C1612       C  0.28572383  0.65642260  0.58840594    -0.03700
C1613       C  0.29370292  0.64573090  0.59041983    -0.09000
C1614       C  0.30383656  0.64310742  0.58202651    -0.16700
H1615       H  0.33364628  0.61267540  0.52458034     0.11500
H1616       H  0.31898136  0.62305453  0.53978268     0.10800
H1617       H  0.34814369  0.65083129  0.54931885     0.10700
H1618       H  0.36295538  0.64050361  0.53398165     0.11200
H1619       H  0.30007569  0.66817286  0.56129885     0.11300
H1620       H  0.28225178  0.67291627  0.57618189     0.11200
H1621       H  0.29197177  0.63924642  0.59839222     0.11400
H1622       H  0.30970168  0.63466803  0.58363916     0.10200
C1623       C  0.22913963  0.64059865  0.58650413    -0.03600
C1624       C  0.22655485  0.64601650  0.57436533    -0.09400
C1625       C  0.21812401  0.63999620  0.56581221    -0.17000
C1626       C  0.21212614  0.62846328  0.56922356     0.25100
C1627       C  0.21475448  0.62288438  0.58123146    -0.18700
C1628       C  0.22323916  0.62890930  0.58983127    -0.07600
C1629       C  0.20293800  0.62277164  0.56050733    -0.14000
C1630       C  0.19502889  0.61921538  0.55276875    -0.13800
C1631       C  0.18541851  0.61647688  0.54312841     0.25000
C1632       C  0.18428231  0.60419822  0.53767862    -0.19200
C1633       C  0.17529575  0.60190649  0.52787012    -0.07600
C1634       C  0.16741112  0.61190902  0.52337866    -0.03700
C1635       C  0.16847689  0.62412472  0.52907682    -0.09000
C1636       C  0.17739911  0.62637547  0.53886887    -0.16700
H1637       H  0.23097028  0.65499295  0.57150599     0.11500
H1638       H  0.21616263  0.64443347  0.55657723     0.10800
H1639       H  0.21014524  0.61397416  0.58399972     0.10700
H1640       H  0.22506626  0.62452211  0.59911056     0.11200
H1641       H  0.19045703  0.59645944  0.54086893     0.11300
H1642       H  0.17471371  0.59242606  0.52361338     0.11200
H1643       H  0.16254004  0.63201653  0.52582679     0.11400
H1644       H  0.17817999  0.63591494  0.54298526     0.10200
C1645       C  0.23115907  0.65459319  0.40442373    -0.03600
C1646       C  0.22619732  0.64208690  0.40565705    -0.09400
C1647       C  0.21638168  0.63949409  0.41442650    -0.17000
C1648       C  0.21136628  0.64935148  0.42207792     0.25100
C1649       C  0.21605945  0.66189596  0.42074448    -0.18700
C1650       C  0.22590010  0.66452375  0.41193393    -0.07600
C1651       C  0.20171613  0.64636360  0.43153727    -0.14000
C1652       C  0.19399317  0.64281397  0.43942218    -0.13800
C1653       C  0.18528661  0.63735280  0.44869308     0.25000
C1654       C  0.17337029  0.64307124  0.45116734    -0.19200
C1655       C  0.16481576  0.63736778  0.45987684    -0.07600
C1656       C  0.16810910  0.62587035  0.46614954    -0.03700
C1657       C  0.18013852  0.62027526  0.46366221    -0.09000
C1658       C  0.18865282  0.62598376  0.45500891    -0.16700
H1659       H  0.23006292  0.63424268  0.40000648     0.11500
H1660       H  0.21284272  0.62975300  0.41538271     0.10800
H1661       H  0.21225486  0.66959674  0.42664719     0.10700
H1662       H  0.22957900  0.67422484  0.41120002     0.11200
H1663       H  0.17065942  0.65186117  0.44629853     0.11300
H1664       H  0.15561195  0.64187251  0.46162197     0.11200
H1665       H  0.18295978  0.61143731  0.46836770     0.11400
H1666       H  0.19783311  0.62145842  0.45315980     0.10200
C1667       C  0.28791290  0.64113564  0.40626667    -0.03600
C1668       C  0.29125148  0.64721485  0.41789890    -0.09400
C1669       C  0.29977889  0.64141715  0.42647681    -0.17000
C1670       C  0.30509757  0.62941449  0.42363885     0.25100
C1671       C  0.30176635  0.62319124  0.41211306    -0.18700
C1672       C  0.29320753  0.62902394  0.40345424    -0.07600
C1673       C  0.31407036  0.62378201  0.43261106    -0.14000
C1674       C  0.32157975  0.62035761  0.44079589    -0.13800
C1675       C  0.33058489  0.61772189  0.45104287     0.25000
C1676       C  0.33303734  0.60510535  0.45506554    -0.19200
C1677       C  0.34178278  0.60275319  0.46507250    -0.07600
C1678       C  0.34816436  0.61301413  0.47115823    -0.03700
C1679       C  0.34556629  0.62563439  0.46710173    -0.09000
C1680       C  0.33685808  0.62795515  0.45713213    -0.16700
H1681       H  0.28733813  0.65654059  0.42034852     0.11500
H1682       H  0.30227888  0.64634966  0.43533083     0.10800
H1683       H  0.30581739  0.61389290  0.40979576     0.10700
H1684       H  0.29077265  0.62411276  0.39458461     0.11200
H1685       H  0.32819137  0.59709966  0.45048559     0.11300
H1686       H  0.34352853  0.59294867  0.46806181     0.11200
H1687       H  0.35025982  0.63374067  0.47165036     0.11400
H1688       H  0.33500719  0.63776416  0.45417495     0.10200
C1689       C  0.18909447  0.63273516  0.27583604    -0.03600
C1690       C  0.18627971  0.64030085  0.28670838    -0.09400
C1691       C  0.19577639  0.64300132  0.29582937    -0.17000
C1692       C  0.20821219  0.63819774  0.29421998     0.25100
C1693       C  0.21114246  0.63077108  0.28335328    -0.18700
C1694       C  0.20163734  0.62805000  0.27420147    -0.07600
C1695       C  0.21780867  0.64074574  0.30389379    -0.14000
C1696       C  0.22516416  0.64316314  0.31254806    -0.13800
C1697       C  0.23295703  0.64649906  0.32352785     0.25000
C1698       C  0.24198574  0.63782111  0.32844199    -0.19200
C1699       C  0.24880041  0.64078765  0.33970264    -0.07600
C1700       C  0.24660643  0.65245566  0.34617856    -0.03700
C1701       C  0.23775783  0.66123008  0.34098414    -0.09000
C1702       C  0.23098516  0.65826098  0.32974923    -0.16700
H1703       H  0.17670433  0.64402279  0.28823699     0.11500
H1704       H  0.19338691  0.64874943  0.30419986     0.10800
H1705       H  0.22073585  0.62699607  0.28201082     0.10700
H1706       H  0.20405843  0.62218646  0.26592797     0.11200
H1707       H  0.24356886  0.62866827  0.32372607     0.11300
H1708       H  0.25554975  0.63385271  0.34349677     0.11200
H1709       H  0.23586899  0.67029250  0.34575404     0.11400
H1710       H  0.22400626  0.66503740  0.32606144     0.10200
C1711       C  0.12837974  0.53949322  0.15497445    -0.03600
C1712       C  0.12381883  0.54202062  0.16746998    -0.09400
C1713       C  0.13019038  0.55073886  0.17546038    -0.17000
C1714       C  0.14120801  0.55708077  0.17111254     0.25100
C1715       C  0.14592214  0.55453084  0.15872426    -0.18700
C1716       C  0.13955872  0.54574630  0.15069881    -0.07600
C1717       C  0.14727393  0.56646974  0.17933609    -0.14000
C1718       C  0.15099614  0.57441086  0.18696229    -0.13800
C1719       C  0.15355954  0.58384337  0.19682210     0.25000
C1720       C  0.16546579  0.58436574  0.20309816    -0.19200
C1721       C  0.16732330  0.59281610  0.21347995    -0.07600
C1722       C  0.15723493  0.60073397  0.21771765    -0.03700
C1723       C  0.14547611  0.60040266  0.21108867    -0.09000
C1724       C  0.14366515  0.59203017  0.20073607    -0.16700
H1725       H  0.11526118  0.53732158  0.17104763     0.11500
H1726       H  0.12642760  0.55264092  0.18501334     0.10800
H1727       H  0.15441653  0.55940971  0.15523373     0.10700
H1728       H  0.14327329  0.54397150  0.14111386     0.11200
H1729       H  0.17319349  0.57804569  0.20017707     0.11300
H1730       H  0.17647639  0.59289281  0.21840583     0.11200
H1731       H  0.13755277  0.60643336  0.21408243     0.11400
H1732       H  0.13441069  0.59171118  0.19598478     0.10200
C1733       C  0.14406226  0.41875478  0.21604177    -0.03600
C1734       C  0.13108992  0.41742390  0.21254442    -0.09400
C1735       C  0.12534281  0.42626289  0.20412922    -0.17000
C1736       C  0.13250312  0.43649347  0.19907201     0.25100
C1737       C  0.14545234  0.43778094  0.20243391    -0.18700
C1738       C  0.15118189  0.42901033  0.21085932    -0.07600
C1739       C  0.12672668  0.44566424  0.19036450    -0.14000
C1740       C  0.12282766  0.45363584  0.18284409    -0.13800
C1741       C  0.11955891  0.46342186  0.17352073     0.25000
C1742       C  0.10690434  0.46779987  0.17209941    -0.19200
C1743       C  0.10403565  0.47752574  0.16316767    -0.07600
C1744       C  0.11381836  0.48297194  0.15558480    -0.03700
C1745       C  0.12643171  0.47838475  0.15699843    -0.09000
C1746       C  0.12926353  0.46872245  0.16588292    -0.16700
H1747       H  0.12536821  0.40964118  0.21641378     0.11500
H1748       H  0.11532155  0.42513480  0.20159593     0.10800
H1749       H  0.15112947  0.44560113  0.19856523     0.10700
H1750       H  0.16119628  0.43027556  0.21333885     0.11200
H1751       H  0.09929337  0.46378967  0.17795783     0.11300
H1752       H  0.09425264  0.48090228  0.16232678     0.11200
H1753       H  0.13419040  0.48239556  0.15134029     0.11400
H1754       H  0.13908440  0.46545663  0.16687353     0.10200
C1755       C  0.13456858  0.57777087  0.46692086    -0.03600
C1756       C  0.12721253  0.58041703  0.45588081    -0.09400
C1757       C  0.12468080  0.57077717  0.44686265    -0.17000
C1758       C  0.12944084  0.55835382  0.44873339     0.25100
C1759       C  0.13664872  0.55557292  0.45978167    -0.18700
C1760       C  0.13921080  0.56523562  0.46883910    -0.07600
C1761       C  0.12713655  0.54868603  0.43905444    -0.14000
C1762       C  0.12489233  0.54149710  0.43020356    -0.13800
C1763       C  0.12178095  0.53402415  0.41892530     0.25000
C1764       C  0.13098609  0.52605164  0.41320217    -0.19200
C1765       C  0.12813311  0.51950150  0.40175200    -0.07600
C1766       C  0.11604965  0.52090145  0.39587925    -0.03700
C1767       C  0.10681999  0.52878890  0.40179529    -0.09000
C1768       C  0.10967421  0.53529295  0.41323410    -0.16700
H1769       H  0.12354020  0.58998493  0.45412573     0.11500
H1770       H  0.11911536  0.57305396  0.43834564     0.10800
H1771       H  0.14039621  0.54598830  0.46132705     0.10700
H1772       H  0.14491507  0.56294858  0.47724749     0.11200
H1773       H  0.14041726  0.52505802  0.41747083     0.11300
H1774       H  0.13543847  0.51352259  0.39738323     0.11200
H1775       H  0.09744111  0.53006339  0.39749254     0.11400
H1776       H  0.10249712  0.54148753  0.41752926     0.10200
C1777       C  0.11172311  0.53534695  0.33639803    -0.03600
C1778       C  0.12418650  0.53974417  0.33366115    -0.09400
C1779       C  0.12617796  0.54964166  0.32482247    -0.17000
C1780       C  0.11576471  0.55538741  0.31858882     0.25100
C1781       C  0.10326618  0.55118861  0.32132683    -0.18700
C1782       C  0.10124294  0.54119918  0.33019270    -0.07600
C1783       C  0.11819081  0.56541662  0.30929748    -0.14000
C1784       C  0.12181991  0.57340245  0.30167421    -0.13800
C1785       C  0.12785687  0.58217331  0.29276570     0.25000
C1786       C  0.12178818  0.59357057  0.28893789    -0.19200
C1787       C  0.12794954  0.60200873  0.28039185    -0.07600
C1788       C  0.14022637  0.59909478  0.27558119    -0.03700
C1789       C  0.14622163  0.58765887  0.27952394    -0.09000
C1790       C  0.14009301  0.57929778  0.28804725    -0.16700
H1791       H  0.13245840  0.53541179  0.33823823     0.11500
H1792       H  0.13588768  0.55275875  0.32277732     0.10800
H1793       H  0.09511748  0.55555354  0.31655403     0.10700
H1794       H  0.09154941  0.53799435  0.33211032     0.11200
H1795       H  0.11233852  0.59593781  0.29256441     0.11300
H1796       H  0.12312575  0.61076769  0.27753515     0.11200
H1797       H  0.15569760  0.58517915  0.27604784     0.11400
H1798       H  0.14493502  0.57055822  0.29098411     0.10200
C1799       C  0.15781459  0.41863429  0.27373050    -0.03600
C1800       C  0.14537941  0.42159390  0.27805026    -0.09400
C1801       C  0.14349791  0.43041121  0.28800850    -0.17000
C1802       C  0.15398586  0.43643754  0.29386478     0.25100
C1803       C  0.16645632  0.43351133  0.28971980    -0.18700
C1804       C  0.16837044  0.42463809  0.27969415    -0.07600
C1805       C  0.15162989  0.44572215  0.30393197    -0.14000
C1806       C  0.14781894  0.45330583  0.31187755    -0.13800
C1807       C  0.14135890  0.46203286  0.32052766     0.25000
C1808       C  0.12867963  0.46557977  0.31789215    -0.19200
C1809       C  0.12212732  0.47388017  0.32616553    -0.07600
C1810       C  0.12814677  0.47875478  0.33726676    -0.03700
C1811       C  0.14087880  0.47514335  0.33991795    -0.09000
C1812       C  0.14745828  0.46682935  0.33157383    -0.16700
H1813       H  0.13705103  0.41717418  0.27363845     0.11500
H1814       H  0.13380850  0.43260600  0.29108965     0.10800
H1815       H  0.17466205  0.43813258  0.29415396     0.10700
H1816       H  0.17804737  0.42257234  0.27653219     0.11200
H1817       H  0.12382714  0.46190120  0.30941362     0.11300
H1818       H  0.11232912  0.47646564  0.32387672     0.11200
H1819       H  0.14574935  0.47878654  0.34838928     0.11400
H1820       H  0.15726070  0.46413854  0.33374105     0.10200
C1821       C  0.07853776  0.47860886  0.36897261    -0.03600
C1822       C  0.06602986  0.48049901  0.36424519    -0.09400
C1823       C  0.05649749  0.47120532  0.36629450    -0.17000
C1824       C  0.05937495  0.45992972  0.37307443     0.25100
C1825       C  0.07180257  0.45801846  0.37780391    -0.18700
C1826       C  0.08130874  0.46727622  0.37579097    -0.07600
C1827       C  0.04970204  0.45026571  0.37535409    -0.14000
C1828       C  0.04248493  0.44156529  0.37798005    -0.13800
C1829       C  0.03501465  0.43054888  0.38186766     0.25000
C1830       C  0.03774105  0.42448619  0.39358944    -0.19200
C1831       C  0.03116890  0.41331659  0.39713588    -0.07600
C1832       C  0.02173282  0.40804812  0.38900588    -0.03700
C1833       C  0.01886178  0.41431760  0.37735347    -0.09000
C1834       C  0.02548575  0.42549049  0.37379716    -0.16700
H1835       H  0.06364846  0.48910696  0.35890603     0.11500
H1836       H  0.04691697  0.47280003  0.36257557     0.10800
H1837       H  0.07416080  0.44933440  0.38304782     0.10700
H1838       H  0.09086327  0.46550666  0.37947920     0.11200
H1839       H  0.04510317  0.42828495  0.39990853     0.11300
H1840       H  0.03357509  0.40872446  0.40617804     0.11200
H1841       H  0.01164543  0.41047086  0.37090187     0.11400
H1842       H  0.02330808  0.43006476  0.36468260     0.10200
C1843       C  0.88509444  0.22996594  0.31382830    -0.03600
C1844       C  0.88804775  0.23306725  0.30097113    -0.09400
C1845       C  0.88585005  0.22411552  0.29108113    -0.17000
C1846       C  0.88073568  0.21198779  0.29396881     0.25100
C1847       C  0.87773820  0.20891470  0.30673465    -0.18700
C1848       C  0.87985908  0.21781994  0.31657100    -0.07600
C1849       C  0.87842358  0.20255005  0.28403466    -0.14000
C1850       C  0.87582125  0.19373086  0.27691732    -0.13800
C1851       C  0.87202269  0.18237787  0.26987873     0.25000
C1852       C  0.86192434  0.17482825  0.27454814    -0.19200
C1853       C  0.85856791  0.16339433  0.26832084    -0.07600
C1854       C  0.86532093  0.15928635  0.25733892    -0.03700
C1855       C  0.87531238  0.16702015  0.25254606    -0.09000
C1856       C  0.87864045  0.17850724  0.25878415    -0.16700
H1857       H  0.89211368  0.24233885  0.29859490     0.11500
H1858       H  0.88819326  0.22662333  0.28122652     0.10800
H1859       H  0.87379097  0.19957635  0.30910675     0.10700
H1860       H  0.87755992  0.21510979  0.32637676     0.11200
H1861       H  0.85675270  0.17768711  0.28314389     0.11300
H1862       H  0.85083372  0.15765275  0.27224044     0.11200
H1863       H  0.88063899  0.16411520  0.24407071     0.11400
H1864       H  0.88647988  0.18425307  0.25507446     0.10200
C1865       C  0.91850978  0.28476008  0.35027956    -0.03600
C1866       C  0.92680420  0.28945452  0.34067327    -0.09400
C1867       C  0.93563640  0.29925759  0.34353472    -0.17000
C1868       C  0.93620638  0.30448640  0.35599114     0.25100
C1869       C  0.92775298  0.30004868  0.36545667    -0.18700
C1870       C  0.91899653  0.29028222  0.36264214    -0.07600
C1871       C  0.94563437  0.31409740  0.35938462    -0.14000
C1872       C  0.95326220  0.32188279  0.36341856    -0.13800
C1873       C  0.96203596  0.33092861  0.36926378     0.25000
C1874       C  0.96687204  0.32856162  0.38162769    -0.19200
C1875       C  0.97507916  0.33743677  0.38752614    -0.07600
C1876       C  0.97857458  0.34883675  0.38114104    -0.03700
C1877       C  0.97375978  0.35112042  0.36870060    -0.09000
C1878       C  0.96552523  0.34222389  0.36281297    -0.16700
H1879       H  0.92664181  0.28538121  0.33107482     0.11500
H1880       H  0.94212156  0.30261231  0.33611003     0.10800
H1881       H  0.92806311  0.30401014  0.37511344     0.10700
H1882       H  0.91270844  0.28691845  0.37023521     0.11200
H1883       H  0.96425016  0.31988191  0.38674184     0.11300
H1884       H  0.97868305  0.33537371  0.39708608     0.11200
H1885       H  0.97633504  0.35979058  0.36354383     0.11400
H1886       H  0.96183236  0.34418520  0.35325148     0.10200
C1887       C  0.99735898  0.10957343  0.38910816    -0.03600
C1888       C  0.99917899  0.10342294  0.37717986    -0.09400
C1889       C  0.99250152  0.09209316  0.37425075    -0.17000
C1890       C  0.98398019  0.08675873  0.38322030     0.25100
C1891       C  0.98234801  0.09268953  0.39521914    -0.18700
C1892       C  0.98898192  0.10400396  0.39814885    -0.07600
C1893       C  0.97635429  0.07564259  0.37993139    -0.14000
C1894       C  0.96912562  0.06690178  0.37744383    -0.13800
C1895       C  0.95947522  0.05726643  0.37490799     0.25000
C1896       C  0.94749705  0.05826135  0.38090120    -0.19200
C1897       C  0.93787341  0.04928636  0.37828330    -0.07600
C1898       C  0.94007727  0.03910820  0.36964923    -0.03700
C1899       C  0.95216322  0.03807412  0.36370329    -0.09000
C1900       C  0.96180717  0.04713147  0.36631160    -0.16700
H1901       H  0.00556360  0.10749955  0.37003525     0.11500
H1902       H  0.99381227  0.08762448  0.36491088     0.10800
H1903       H  0.97576246  0.08869743  0.40223172     0.10700
H1904       H  0.98739929  0.10850198  0.40742523     0.11200
H1905       H  0.94554786  0.06606316  0.38754016     0.11300
H1906       H  0.92866016  0.05036045  0.38298473     0.11200
H1907       H  0.95409264  0.03038658  0.35694709     0.11400
H1908       H  0.97102248  0.04628666  0.36156195     0.10200
C1909       C  0.98287818  0.16799677  0.39166736    -0.03600
C1910       C  0.97933227  0.17077171  0.37889378    -0.09400
C1911       C  0.96903653  0.17893851  0.37629029    -0.17000
C1912       C  0.96205645  0.18444241  0.38638913     0.25100
C1913       C  0.96553130  0.18180400  0.39917209    -0.18700
C1914       C  0.97591119  0.17362870  0.40181080    -0.07600
C1915       C  0.95146016  0.19285213  0.38341354    -0.14000
C1916       C  0.94309878  0.19994087  0.37962763    -0.13800
C1917       C  0.93407610  0.20864866  0.37372958     0.25000
C1918       C  0.92282952  0.21239480  0.38011997    -0.19200
C1919       C  0.91445455  0.22125431  0.37437524    -0.07600
C1920       C  0.91729288  0.22647079  0.36220578    -0.03700
C1921       C  0.92847543  0.22245297  0.35579294    -0.09000
C1922       C  0.93677626  0.21361563  0.36150819    -0.16700
H1923       H  0.98456420  0.16666612  0.37087291     0.11500
H1924       H  0.96651599  0.18096246  0.36636769     0.10800
H1925       H  0.96023818  0.18605950  0.40707817     0.10700
H1926       H  0.97846541  0.17169697  0.41173270     0.11200
H1927       H  0.92060814  0.20858318  0.38956746     0.11300
H1928       H  0.90587948  0.22414588  0.37950044     0.11200
H1929       H  0.93087959  0.22622872  0.34637622     0.11400
H1930       H  0.94540698  0.21075859  0.35643359     0.10200
C1931       C  0.15172710  0.35904588  0.25813966    -0.03600
C1932       C  0.14001721  0.35297996  0.25518677    -0.09400
C1933       C  0.13681607  0.34117485  0.26085378    -0.17000
C1934       C  0.14531380  0.33527244  0.26947654     0.25100
C1935       C  0.15702770  0.34120876  0.27234973    -0.18700
C1936       C  0.16021802  0.35299347  0.26673853    -0.07600
C1937       C  0.14186123  0.32354240  0.27603289    -0.14000
C1938       C  0.13964888  0.31446407  0.28293132    -0.13800
C1939       C  0.13779170  0.30504201  0.29294913     0.25000
C1940       C  0.14261417  0.30764466  0.30525172    -0.19200
C1941       C  0.14036975  0.29914381  0.31538569    -0.07600
C1942       C  0.13321522  0.28786668  0.31340677    -0.03700
C1943       C  0.12864026  0.28508733  0.30094742    -0.09000
C1944       C  0.13091933  0.29365588  0.29075388    -0.16700
H1945       H  0.13328241  0.35742807  0.24861051     0.11500
H1946       H  0.12767386  0.33674128  0.25863281     0.10800
H1947       H  0.16364396  0.33680016  0.27907731     0.10700
H1948       H  0.16930504  0.35741059  0.26919901     0.11200
H1949       H  0.14794684  0.31640574  0.30707756     0.11300
H1950       H  0.14403019  0.30154785  0.32485540     0.11200
H1951       H  0.12313058  0.27645067  0.29915321     0.11400
H1952       H  0.12715486  0.29151255  0.28126223     0.10200
C1953       C  0.04044061  0.16931522  0.38058970    -0.03600
C1954       C  0.04351233  0.18074186  0.38715528    -0.09400
C1955       C  0.05203988  0.18960087  0.38180015    -0.17000
C1956       C  0.05764286  0.18721622  0.36979445     0.25100
C1957       C  0.05468257  0.17584809  0.36316456    -0.18700
C1958       C  0.04612169  0.16692595  0.36853611    -0.07600
C1959       C  0.06652370  0.19644316  0.36450141    -0.14000
C1960       C  0.07402709  0.20456099  0.36098543    -0.13800
C1961       C  0.08310109  0.21454108  0.35782565     0.25000
C1962       C  0.08476162  0.21856703  0.34505221    -0.19200
C1963       C  0.09344274  0.22843824  0.34214711    -0.07600
C1964       C  0.10055075  0.23437759  0.35200810    -0.03700
C1965       C  0.09889300  0.23019566  0.36478582    -0.09000
C1966       C  0.09022032  0.22036696  0.36766245    -0.16700
H1967       H  0.03931082  0.18285479  0.39645915     0.11500
H1968       H  0.05427234  0.19832941  0.38704798     0.10800
H1969       H  0.05898781  0.17388345  0.35387276     0.10700
H1970       H  0.04392202  0.15820887  0.36327021     0.11200
H1971       H  0.07928913  0.21413997  0.33735494     0.11300
H1972       H  0.09450812  0.23149971  0.33223782     0.11200
H1973       H  0.10419346  0.23462049  0.37259085     0.11400
H1974       H  0.08900798  0.21736723  0.37758284     0.10200
C1975       C  0.03453455  0.34913706  0.39376134    -0.03600
C1976       C  0.03928965  0.34123776  0.40365749    -0.09400
C1977       C  0.04929105  0.33255896  0.40117399    -0.17000
C1978       C  0.05463583  0.33173244  0.38880216     0.25100
C1979       C  0.04986887  0.33951812  0.37892710    -0.18700
C1980       C  0.03990489  0.34813294  0.38136956    -0.07600
C1981       C  0.06492393  0.32290134  0.38599048    -0.14000
C1982       C  0.07325161  0.31575719  0.38223921    -0.13800
C1983       C  0.08244075  0.30734916  0.37617085     0.25000
C1984       C  0.07923559  0.30147515  0.36448314    -0.19200
C1985       C  0.08799863  0.29344466  0.35829148    -0.07600
C1986       C  0.10014975  0.29113190  0.36369603    -0.03700
C1987       C  0.10337028  0.29706873  0.37544127    -0.09000
C1988       C  0.09455215  0.30516849  0.38163981    -0.16700
H1989       H  0.03524382  0.34172580  0.41325162     0.11500
H1990       H  0.05284057  0.32650894  0.40887976     0.10800
H1991       H  0.05385872  0.33892676  0.36930511     0.10700
H1992       H  0.03640317  0.35402437  0.37352567     0.11200
H1993       H  0.06992324  0.30311395  0.36012587     0.11300
H1994       H  0.08521998  0.28898474  0.34928111     0.11200
H1995       H  0.11265931  0.29543431  0.37982154     0.11400
H1996       H  0.09716758  0.30970947  0.39065817     0.10200
C1997       C  0.90799141  0.53800626  0.83847042    -0.03600
C1998       C  0.91750120  0.54181380  0.82964227    -0.09400
C1999       C  0.91491007  0.55143921  0.82053656    -0.17000
C2000       C  0.90284006  0.55738709  0.82025762     0.25100
C2001       C  0.89357735  0.55400314  0.82939152    -0.18700
C2002       C  0.89611518  0.54439984  0.83841403    -0.07600
C2003       C  0.89948653  0.56641319  0.81026158    -0.14000
C2004       C  0.89528441  0.57360682  0.80216495    -0.13800
C2005       C  0.88903183  0.58193282  0.79299122     0.25000
C2006       C  0.87670517  0.57890202  0.78854141    -0.19200
C2007       C  0.87027585  0.58724737  0.78018227    -0.07600
C2008       C  0.87609209  0.59876921  0.77615892    -0.03700
C2009       C  0.88853834  0.60165998  0.78051683    -0.09000
C2010       C  0.89495861  0.59329543  0.78888997    -0.16700
H2011       H  0.92672045  0.53703345  0.82946304     0.11500
H2012       H  0.92217013  0.55398121  0.81351995     0.10800
H2013       H  0.88421998  0.55854064  0.82930650     0.10700
H2014       H  0.88862383  0.54172130  0.84512624     0.11200
H2015       H  0.87199844  0.57015559  0.79165149     0.11300
H2016       H  0.86072077  0.58473080  0.77695056     0.11200
H2017       H  0.89326790  0.61043899  0.77753159     0.11400
H2018       H  0.90448350  0.59576169  0.79227639     0.10200
C2019       C  0.89169955  0.54056371  0.65556437    -0.03600
C2020       C  0.88112422  0.54766647  0.65111260    -0.09400
C2021       C  0.87468594  0.55616060  0.65936351    -0.17000
C2022       C  0.87869435  0.55758517  0.67217340     0.25100
C2023       C  0.88921069  0.55052132  0.67666204    -0.18700
C2024       C  0.89568025  0.54208716  0.66843006    -0.07600
C2025       C  0.87234261  0.56649695  0.68071255    -0.14000
C2026       C  0.86824597  0.57406134  0.68852801    -0.13800
C2027       C  0.86539148  0.58318966  0.69859748     0.25000
C2028       C  0.85284083  0.58506315  0.70311862    -0.19200
C2029       C  0.85053200  0.59350049  0.71343860    -0.07600
C2030       C  0.86077860  0.60011167  0.71929362    -0.03700
C2031       C  0.87326252  0.59829896  0.71450721    -0.09000
C2032       C  0.87553314  0.58991574  0.70427760    -0.16700
H2033       H  0.87788013  0.54670322  0.64123860     0.11500
H2034       H  0.86661898  0.56163541  0.65574626     0.10800
H2035       H  0.89245166  0.55157136  0.68653130     0.10700
H2036       H  0.90377261  0.53673074  0.67214634     0.11200
H2037       H  0.84489916  0.57989391  0.69880788     0.11300
H2038       H  0.84082741  0.59472308  0.71693019     0.11200
H2039       H  0.88136037  0.60322708  0.71881051     0.11400
H2040       H  0.88527829  0.58853257  0.70090989     0.10200
C2041       C  0.89266112  0.48070578  0.83653357    -0.03600
C2042       C  0.89782294  0.47840275  0.82422638    -0.09400
C2043       C  0.89195574  0.46968129  0.81585661    -0.17000
C2044       C  0.88086740  0.46311469  0.81964871     0.25100
C2045       C  0.87559798  0.46540005  0.83185753    -0.18700
C2046       C  0.88145246  0.47417535  0.84025849    -0.07600
C2047       C  0.87522836  0.45380799  0.81105408    -0.14000
C2048       C  0.87158224  0.44594323  0.80332283    -0.13800
C2049       C  0.86864851  0.43655390  0.79353963     0.25000
C2050       C  0.85597721  0.43436145  0.78957810    -0.19200
C2051       C  0.85338177  0.42557347  0.77966194    -0.07600
C2052       C  0.86345521  0.41890628  0.77362192    -0.03700
C2053       C  0.87611593  0.42106556  0.77779654    -0.09000
C2054       C  0.87867971  0.42982339  0.78766653    -0.16700
H2055       H  0.90644663  0.48328535  0.82109000     0.11500
H2056       H  0.89614516  0.46797312  0.80645074     0.10800
H2057       H  0.86704504  0.46033262  0.83491485     0.10700
H2058       H  0.87730826  0.47574395  0.84970300     0.11200
H2059       H  0.84813263  0.43954109  0.79404224     0.11300
H2060       H  0.84355220  0.42411376  0.77661608     0.11200
H2061       H  0.88408171  0.41610479  0.77331441     0.11400
H2062       H  0.88851859  0.43145647  0.79061751     0.10200
C2063       C  0.87452296  0.41937553  0.71588831    -0.03600
C2064       C  0.86912118  0.43157262  0.71376855    -0.09400
C2065       C  0.87474694  0.44011092  0.70504450    -0.17000
C2066       C  0.88582743  0.43658769  0.69829275     0.25100
C2067       C  0.89120966  0.42441767  0.70026329    -0.18700
C2068       C  0.88561338  0.41586411  0.70903931    -0.07600
C2069       C  0.89157189  0.44551615  0.68936373    -0.14000
C2070       C  0.89559984  0.45346066  0.68191079    -0.13800
C2071       C  0.89902182  0.46343652  0.67289681     0.25000
C2072       C  0.91167376  0.46794891  0.67190362    -0.19200
C2073       C  0.91465485  0.47797194  0.66335366    -0.07600
C2074       C  0.90498044  0.48356864  0.65575430    -0.03700
C2075       C  0.89236347  0.47887177  0.65678131    -0.09000
C2076       C  0.88942631  0.46890651  0.66526564    -0.16700
H2077       H  0.86058901  0.43454877  0.71891110     0.11500
H2078       H  0.87046417  0.44948007  0.70358773     0.10800
H2079       H  0.89974850  0.42155478  0.69504621     0.10700
H2080       H  0.88993879  0.40651311  0.71045584     0.11200
H2081       H  0.91918359  0.46381593  0.67780071     0.11300
H2082       H  0.92443450  0.48143719  0.66280287     0.11200
H2083       H  0.88468809  0.48298983  0.65109077     0.11400
H2084       H  0.87960659  0.46554280  0.66596110     0.10200
C2085       C  0.88664699  0.28942247  0.81575435    -0.03600
C2086       C  0.87910250  0.30033220  0.81827897    -0.09400
C2087       C  0.87673119  0.30936364  0.80861877    -0.17000
C2088       C  0.88185203  0.30766930  0.79627276     0.25100
C2089       C  0.88931087  0.29678063  0.79361458    -0.18700
C2090       C  0.89169753  0.28769229  0.80330299    -0.07600
C2091       C  0.87951051  0.31729515  0.78654017    -0.14000
C2092       C  0.87704331  0.32604464  0.77930413    -0.13800
C2093       C  0.87349623  0.33716075  0.77179019     0.25000
C2094       C  0.88239338  0.34311093  0.76360831    -0.19200
C2095       C  0.87912181  0.35444160  0.75709051    -0.07600
C2096       C  0.86693270  0.35998836  0.75876147    -0.03700
C2097       C  0.85798630  0.35380180  0.76678353    -0.09000
C2098       C  0.86124899  0.34247861  0.77323374    -0.16700
H2099       H  0.87509492  0.30194711  0.82776862     0.11500
H2100       H  0.87095718  0.31773729  0.81081446     0.10800
H2101       H  0.89334346  0.29535835  0.78409828     0.10700
H2102       H  0.89756283  0.27939759  0.80109928     0.11200
H2103       H  0.89192433  0.33912880  0.76244818     0.11300
H2104       H  0.88620208  0.35900752  0.75098328     0.11200
H2105       H  0.84851445  0.35781951  0.76822697     0.11400
H2106       H  0.85428467  0.33800147  0.77955347     0.10200
C2107       C  0.97707822  0.16838523  0.88043221    -0.03600
C2108       C  0.97412756  0.18044363  0.88578239    -0.09400
C2109       C  0.96542065  0.18861437  0.87969002    -0.17000
C2110       C  0.95952036  0.18488412  0.86817015     0.25100
C2111       C  0.96235815  0.17287389  0.86276828    -0.18700
C2112       C  0.97110649  0.16465623  0.86886848    -0.07600
C2113       C  0.95045651  0.19343684  0.86215422    -0.14000
C2114       C  0.94287790  0.20134461  0.85837784    -0.13800
C2115       C  0.93387878  0.21146717  0.85557104     0.25000
C2116       C  0.93207261  0.21591287  0.84295418    -0.19200
C2117       C  0.92369717  0.22617830  0.84055226    -0.07600
C2118       C  0.91707260  0.23207879  0.85076858    -0.03700
C2119       C  0.91885302  0.22743058  0.86336083    -0.09000
C2120       C  0.92719455  0.21722164  0.86572913    -0.16700
H2121       H  0.97856626  0.18358287  0.89467879     0.11500
H2122       H  0.96327550  0.19786207  0.88398707     0.10800
H2123       H  0.95781459  0.16986643  0.85387375     0.10700
H2124       H  0.97320670  0.15541498  0.86455193     0.11200
H2125       H  0.93723947  0.21156078  0.83501607     0.11300
H2126       H  0.92253323  0.22960039  0.83077525     0.11200
H2127       H  0.91393046  0.23180454  0.87143289     0.11400
H2128       H  0.92855291  0.21391467  0.87553301     0.10200
C2129       C  0.03451947  0.16932889  0.89312813    -0.03600
C2130       C  0.04060913  0.17592604  0.90325247    -0.09400
C2131       C  0.05069917  0.18444479  0.90066720    -0.17000
C2132       C  0.05479723  0.18640594  0.88796642     0.25100
C2133       C  0.04883123  0.17978856  0.87787188    -0.18700
C2134       C  0.03876807  0.17131367  0.88042356    -0.07600
C2135       C  0.06489584  0.19539299  0.88509606    -0.14000
C2136       C  0.07292483  0.20293219  0.88152267    -0.13800
C2137       C  0.08176369  0.21187824  0.87578743     0.25000
C2138       C  0.09352866  0.21474851  0.88167266    -0.19200
C2139       C  0.10213387  0.22322282  0.87570770    -0.07600
C2140       C  0.09901278  0.22886756  0.86380825    -0.03700
C2141       C  0.08714983  0.22596641  0.85805063    -0.09000
C2142       C  0.07860755  0.21753839  0.86399833    -0.16700
H2143       H  0.03749432  0.17459608  0.91311376     0.11500
H2144       H  0.05523395  0.18956235  0.90854797     0.10800
H2145       H  0.05189275  0.18125431  0.86800837     0.10700
H2146       H  0.03425428  0.16637858  0.87242665     0.11200
H2147       H  0.09606886  0.21039622  0.89079822     0.11300
H2148       H  0.11120474  0.22531684  0.88034909     0.11200
H2149       H  0.08447735  0.23017435  0.84889527     0.11400
H2150       H  0.06954508  0.21536960  0.85934456     0.10200
C2151       C  0.94090821  0.47989469  0.86981023    -0.03600
C2152       C  0.95288203  0.48039170  0.86358545    -0.09400
C2153       C  0.96217598  0.47095029  0.86597921    -0.17000
C2154       C  0.95962570  0.46094548  0.87464555     0.25100
C2155       C  0.94775851  0.46047701  0.88094182    -0.18700
C2156       C  0.93846431  0.46985267  0.87853487    -0.07600
C2157       C  0.96898976  0.45098678  0.87698477    -0.14000
C2158       C  0.97614798  0.44215207  0.87931365    -0.13800
C2159       C  0.98378917  0.43104104  0.88256883     0.25000
C2160       C  0.98198603  0.42497498  0.89446246    -0.19200
C2161       C  0.98869727  0.41373281  0.89742345    -0.07600
C2162       C  0.99733941  0.40835814  0.88852225    -0.03700
C2163       C  0.99932801  0.41463370  0.87668822    -0.09000
C2164       C  0.99257004  0.42590300  0.87372672    -0.16700
H2165       H  0.95498442  0.48795930  0.85675367     0.11500
H2166       H  0.97130506  0.47140345  0.86100373     0.10800
H2167       H  0.94564119  0.45279155  0.88765032     0.10700
H2168       H  0.92932598  0.46919174  0.88344784     0.11200
H2169       H  0.97521468  0.42882216  0.90138581     0.11300
H2170       H  0.98697704  0.40913991  0.90662071     0.11200
H2171       H  0.00592320  0.41071445  0.86964981     0.11400
H2172       H  0.99403922  0.43048264  0.86447602     0.10200
C2173       C  0.98334314  0.34955321  0.89261064    -0.03600
C2174       C  0.97789754  0.34284305  0.90301831    -0.09400
C2175       C  0.96789070  0.33407251  0.90093598    -0.17000
C2176       C  0.96323151  0.33194564  0.88844767     0.25100
C2177       C  0.96853329  0.33869750  0.87808313    -0.18700
C2178       C  0.97850270  0.34743522  0.88013574    -0.07600
C2179       C  0.95329871  0.32260188  0.88604719    -0.14000
C2180       C  0.94540757  0.31474924  0.88279675    -0.13800
C2181       C  0.93668656  0.30547527  0.87733747     0.25000
C2182       C  0.94031190  0.29881261  0.86621568    -0.19200
C2183       C  0.93174773  0.29037607  0.86027070    -0.07600
C2184       C  0.91938855  0.28847228  0.86534952    -0.03700
C2185       C  0.91586891  0.29495973  0.87669984    -0.09000
C2186       C  0.92448769  0.30345105  0.88265289    -0.16700
H2187       H  0.98147200  0.34426059  0.91271652     0.11500
H2188       H  0.96388646  0.32886594  0.90902805     0.10800
H2189       H  0.96504748  0.33710692  0.86837115     0.10700
H2190       H  0.98252007  0.35242849  0.87192524     0.11200
H2191       H  0.94970958  0.30029464  0.86200932     0.11300
H2192       H  0.93476027  0.28546276  0.85157860     0.11200
H2193       H  0.90642789  0.29362105  0.88083546     0.11400
H2194       H  0.92157593  0.30856655  0.89126631     0.10200
C2195       C  0.10034421  0.28593162  0.84927001    -0.03600
C2196       C  0.09799295  0.29048184  0.86180777    -0.09400
C2197       C  0.08941585  0.30055731  0.86389438    -0.17000
C2198       C  0.08307496  0.30627577  0.85350071     0.25100
C2199       C  0.08549211  0.30196517  0.84093734    -0.18700
C2200       C  0.09409373  0.29182719  0.83882127    -0.07600
C2201       C  0.07380626  0.31622889  0.85599571    -0.14000
C2202       C  0.06604489  0.32405007  0.85957055    -0.13800
C2203       C  0.05695647  0.33264492  0.86548251     0.25000
C2204       C  0.05393905  0.34448410  0.85983128    -0.19200
C2205       C  0.04546560  0.35292442  0.86601857    -0.07600
C2206       C  0.03996112  0.34959608  0.87792481    -0.03700
C2207       C  0.04296674  0.33763814  0.88344541    -0.09000
C2208       C  0.05140021  0.32924248  0.87726449    -0.16700
H2209       H  0.10262739  0.28611246  0.87004949     0.11500
H2210       H  0.08759627  0.30377646  0.87365451     0.10800
H2211       H  0.08061574  0.30631112  0.83281853     0.10700
H2212       H  0.09572116  0.28849385  0.82907299     0.11200
H2213       H  0.05820291  0.34722615  0.85072125     0.11300
H2214       H  0.04327516  0.36206187  0.86154061     0.11200
H2215       H  0.03884752  0.33478890  0.89258434     0.11400
H2216       H  0.05367849  0.32012084  0.88174390     0.10200
C2217       C  0.22985586  0.32587159  0.87200074    -0.03600
C2218       C  0.22135127  0.32696886  0.86154484    -0.09400
C2219       C  0.21247227  0.31726135  0.85891076    -0.17000
C2220       C  0.21189454  0.30632735  0.86671538     0.25100
C2221       C  0.22049477  0.30500925  0.87702085    -0.18700
C2222       C  0.22948949  0.31470884  0.87962107    -0.07600
C2223       C  0.20206641  0.29684765  0.86436635    -0.14000
C2224       C  0.19318116  0.28977723  0.86200010    -0.13800
C2225       C  0.18193661  0.28234611  0.85880871     0.25000
C2226       C  0.17574448  0.27498465  0.86824020    -0.19200
C2227       C  0.16427683  0.26858432  0.86533517    -0.07600
C2228       C  0.15883603  0.26956318  0.85297840    -0.03700
C2229       C  0.16526834  0.27672906  0.84348655    -0.09000
C2230       C  0.17673956  0.28306938  0.84639132    -0.16700
H2231       H  0.22143908  0.33544274  0.85549221     0.11500
H2232       H  0.20587838  0.31840437  0.85091893     0.10800
H2233       H  0.22010016  0.29661088  0.88316751     0.10700
H2234       H  0.23587476  0.31366237  0.88778225     0.11200
H2235       H  0.17964163  0.27439934  0.87790125     0.11300
H2236       H  0.15951015  0.26314070  0.87282806     0.11200
H2237       H  0.16132118  0.27761226  0.83387689     0.11400
H2238       H  0.18141728  0.28875891  0.83901605     0.10200
C2239       C  0.28344554  0.36361206  0.90594135    -0.03600
C2240       C  0.28879018  0.35395798  0.91374754    -0.09400
C2241       C  0.29866161  0.35692627  0.92246508    -0.17000
C2242       C  0.30330401  0.36954181  0.92342371     0.25100
C2243       C  0.29809356  0.37913383  0.91558180    -0.18700
C2244       C  0.28824332  0.37621009  0.90693448    -0.07600
C2245       C  0.31321883  0.37286871  0.93255527    -0.14000
C2246       C  0.32126730  0.37667583  0.94002429    -0.13800
C2247       C  0.33052510  0.38226209  0.94873349     0.25000
C2248       C  0.32873770  0.39482228  0.95320428    -0.19200
C2249       C  0.33771516  0.40043480  0.96148697    -0.07600
C2250       C  0.34865036  0.39356010  0.96542498    -0.03700
C2251       C  0.35039957  0.38094368  0.96091890    -0.09000
C2252       C  0.34137964  0.37532905  0.95261592    -0.16700
H2253       H  0.28523695  0.34419785  0.91322914     0.11500
H2254       H  0.30259700  0.34941746  0.92851151     0.10800
H2255       H  0.30157804  0.38892320  0.91622351     0.10700
H2256       H  0.28432516  0.38385687  0.90106378     0.11200
H2257       H  0.32039490  0.40030183  0.95026932     0.11300
H2258       H  0.33608168  0.41015151  0.96482527     0.11200
H2259       H  0.35870319  0.37541520  0.96384638     0.11400
H2260       H  0.34287718  0.36560311  0.94921733     0.10200
C2261       C  0.03848101  0.38316343  0.92760124    -0.03600
C2262       C  0.04831913  0.39222500  0.92573579    -0.09400
C2263       C  0.05724248  0.39470530  0.93548835    -0.17000
C2264       C  0.05652128  0.38815093  0.94723905     0.25100
C2265       C  0.04659110  0.37929578  0.94929289    -0.18700
C2266       C  0.03759184  0.37683957  0.93954191    -0.07600
C2267       C  0.06630954  0.39026618  0.95687084    -0.14000
C2268       C  0.07519960  0.39250909  0.96401529    -0.13800
C2269       C  0.08645472  0.39591078  0.97140178     0.25000
C2270       C  0.09191374  0.38722954  0.98014694    -0.19200
C2271       C  0.10328214  0.39040462  0.98666428    -0.07600
C2272       C  0.10932337  0.40230031  0.98448241    -0.03700
C2273       C  0.10365146  0.41101433  0.97584487    -0.09000
C2274       C  0.09232801  0.40783146  0.96935635    -0.16700
H2275       H  0.04923088  0.39726954  0.91666322     0.11500
H2276       H  0.06485700  0.40159177  0.93377260     0.10800
H2277       H  0.04592414  0.37414620  0.95833620     0.10700
H2278       H  0.03013091  0.36979074  0.94122719     0.11200
H2279       H  0.08749756  0.37794818  0.98178609     0.11300
H2280       H  0.10743720  0.38350310  0.99325152     0.11200
H2281       H  0.10807838  0.42023721  0.97394235     0.11400
H2282       H  0.08825116  0.41461125  0.96258185     0.10200
C2283       C  0.13438318  0.44180645  0.02491208    -0.03600
C2284       C  0.13842404  0.45448522  0.02252968    -0.09400
C2285       C  0.13545651  0.46435070  0.03126414    -0.17000
C2286       C  0.12840470  0.46164426  0.04244462     0.25100
C2287       C  0.12417084  0.44908958  0.04471893    -0.18700
C2288       C  0.12712747  0.43925476  0.03604534    -0.07600
C2289       C  0.12586021  0.47146737  0.05194741    -0.14000
C2290       C  0.12351840  0.47857523  0.06086014    -0.13800
C2291       C  0.12040264  0.48567396  0.07241054     0.25000
C2292       C  0.10988386  0.48187275  0.07987959    -0.19200
C2293       C  0.10723762  0.48802702  0.09156039    -0.07600
C2294       C  0.11511737  0.49806470  0.09600368    -0.03700
C2295       C  0.12556633  0.50199308  0.08837105    -0.09000
C2296       C  0.12818594  0.49582859  0.07663679    -0.16700
H2297       H  0.14401532  0.45672847  0.01402996     0.11500
H2298       H  0.13880433  0.47402519  0.02938894     0.10800
H2299       H  0.11872232  0.44685220  0.05332551     0.10700
H2300       H  0.12386022  0.42960355  0.03814753     0.11200
H2301       H  0.10383304  0.47398320  0.07677427     0.11300
H2302       H  0.09914263  0.48477086  0.09722944     0.11200
H2303       H  0.13178218  0.50971240  0.09153985     0.11400
H2304       H  0.13638860  0.49883665  0.07098198     0.10200
C2305       C  0.22629607  0.37605913  0.90454218    -0.03600
C2306       C  0.22166021  0.36994950  0.91568521    -0.09400
C2307       C  0.21353463  0.37644448  0.92417375    -0.17000
C2308       C  0.20992990  0.38915281  0.92170061     0.25100
C2309       C  0.21445505  0.39532642  0.91059519    -0.18700
C2310       C  0.22258434  0.38880489  0.90203716    -0.07600
C2311       C  0.20139511  0.39557107  0.93055276    -0.14000
C2312       C  0.19394027  0.39949605  0.93854642    -0.13800
C2313       C  0.18474479  0.40228500  0.94855488     0.25000
C2314       C  0.18356802  0.41466060  0.95376740    -0.19200
C2315       C  0.17491172  0.41697711  0.96386338    -0.07600
C2316       C  0.16738096  0.40691952  0.96884757    -0.03700
C2317       C  0.16851733  0.39459496  0.96340646    -0.09000
C2318       C  0.17713155  0.39231097  0.95336422    -0.16700
H2319       H  0.22435473  0.36014371  0.91787662     0.11500
H2320       H  0.21006412  0.37154301  0.93269577     0.10800
H2321       H  0.21171860  0.40515648  0.90855986     0.10700
H2322       H  0.22607632  0.39375720  0.89356296     0.11200
H2323       H  0.18943335  0.42245823  0.95015004     0.11300
H2324       H  0.17426110  0.42655021  0.96790334     0.11200
H2325       H  0.16288179  0.38664556  0.96704638     0.11400
H2326       H  0.17796982  0.38269203  0.94944865     0.10200
C2327       C  0.24706162  0.36544255  0.14616552    -0.03600
C2328       C  0.24924352  0.37712995  0.15262079    -0.09400
C2329       C  0.24289846  0.37984816  0.16421887    -0.17000
C2330       C  0.23435450  0.37089721  0.16952929     0.25100
C2331       C  0.23233372  0.35915120  0.16326536    -0.18700
C2332       C  0.23863679  0.35643202  0.15168430    -0.07600
C2333       C  0.22716570  0.37390285  0.18104122    -0.14000
C2334       C  0.22026697  0.37606096  0.19015042    -0.13800
C2335       C  0.21090412  0.37825645  0.20017053     0.25000
C2336       C  0.19877980  0.37256741  0.19914484    -0.19200
C2337       C  0.18929183  0.37520129  0.20827648    -0.07600
C2338       C  0.19176537  0.38359046  0.21861280    -0.03700
C2339       C  0.20407634  0.38901754  0.21981853    -0.09000
C2340       C  0.21358908  0.38637639  0.21062072    -0.16700
H2341       H  0.25569290  0.38423931  0.14860478     0.11500
H2342       H  0.24451618  0.38899436  0.16893991     0.10800
H2343       H  0.22572609  0.35215557  0.16723787     0.10700
H2344       H  0.23679151  0.34733313  0.14696566     0.11200
H2345       H  0.19656965  0.36626690  0.19112516     0.11300
H2346       H  0.17991756  0.37086023  0.20709146     0.11200
H2347       H  0.20624235  0.39552170  0.22766957     0.11400
H2348       H  0.22293875  0.39084420  0.21153107     0.10200
C2349       C  0.16910178  0.39261766  0.02608375    -0.03600
C2350       C  0.16542730  0.38147270  0.03279267    -0.09400
C2351       C  0.17406277  0.37534951  0.04113849    -0.17000
C2352       C  0.18647023  0.38027226  0.04284267     0.25100
C2353       C  0.19016541  0.39137223  0.03619411    -0.18700
C2354       C  0.18156611  0.39749848  0.02788296    -0.07600
C2355       C  0.19541436  0.37422086  0.05157177    -0.14000
C2356       C  0.20346770  0.37030811  0.05897795    -0.13800
C2357       C  0.21361778  0.36744060  0.06800826     0.25000
C2358       C  0.22078806  0.37758210  0.07314664    -0.19200
C2359       C  0.23056727  0.37518355  0.08200775    -0.07600
C2360       C  0.23342554  0.36256262  0.08586349    -0.03700
C2361       C  0.22629878  0.35234178  0.08058879    -0.09000
C2362       C  0.21639755  0.35478432  0.07172832    -0.16700
H2363       H  0.15588448  0.37751831  0.03160928     0.11500
H2364       H  0.17105389  0.36680613  0.04627703     0.10800
H2365       H  0.19970305  0.39532563  0.03746276     0.10700
H2366       H  0.18468153  0.40606432  0.02286276     0.11200
H2367       H  0.21879762  0.38739973  0.07031178     0.11300
H2368       H  0.23596550  0.38324554  0.08578784     0.11200
H2369       H  0.22833216  0.34253073  0.08335368     0.11400
H2370       H  0.21093344  0.34683582  0.06780311     0.10200
C2371       C  0.34931913  0.40555392  0.02243308    -0.03600
C2372       C  0.34676894  0.39295521  0.02659347    -0.09400
C2373       C  0.33809560  0.39067214  0.03657482    -0.17000
C2374       C  0.33181320  0.40092052  0.04258247     0.25100
C2375       C  0.33426091  0.41353068  0.03851707    -0.18700
C2376       C  0.34298716  0.41584889  0.02848455    -0.07600
C2377       C  0.32280883  0.39824581  0.05278863    -0.14000
C2378       C  0.31539965  0.39455021  0.06093012    -0.13800
C2379       C  0.30665534  0.38855587  0.06986939     0.25000
C2380       C  0.30383808  0.39421746  0.08180189    -0.19200
C2381       C  0.29543524  0.38809989  0.09040336    -0.07600
C2382       C  0.28981365  0.37624302  0.08714568    -0.03700
C2383       C  0.29273926  0.37065706  0.07516073    -0.09000
C2384       C  0.30108186  0.37676524  0.06661027    -0.16700
H2385       H  0.35144259  0.38482189  0.02208739     0.11500
H2386       H  0.33625527  0.38087688  0.03958518     0.10800
H2387       H  0.32941012  0.42154454  0.04305905     0.10700
H2388       H  0.34471560  0.42563328  0.02541473     0.11200
H2389       H  0.30813251  0.40332203  0.08445423     0.11300
H2390       H  0.29333947  0.39261947  0.09956645     0.11200
H2391       H  0.28854530  0.36154824  0.07235861     0.11400
H2392       H  0.30320631  0.37226279  0.05743639     0.10200
C2393       C  0.99601762  0.61189100  0.60368094    -0.03600
C2394       C  0.98730106  0.60654998  0.59482195    -0.09400
C2395       C  0.98088208  0.59510221  0.59764345    -0.17000
C2396       C  0.98305792  0.58881173  0.60935276     0.25100
C2397       C  0.99184469  0.59397567  0.61818177    -0.18700
C2398       C  0.99830952  0.60544968  0.61536119    -0.07600
C2399       C  0.97579275  0.57741443  0.61244853    -0.14000
C2400       C  0.96888077  0.56836488  0.61469681    -0.13800
C2401       C  0.95966035  0.55827048  0.61702169     0.25000
C2402       C  0.96205572  0.54866455  0.62617045    -0.19200
C2403       C  0.95272704  0.53929486  0.62878232    -0.07600
C2404       C  0.94087036  0.53948875  0.62231078    -0.03700
C2405       C  0.93865870  0.54904414  0.61299065    -0.09000
C2406       C  0.94798279  0.55833949  0.61036646    -0.16700
H2407       H  0.98535521  0.61127968  0.58574116     0.11500
H2408       H  0.97408369  0.59124038  0.59074548     0.10800
H2409       H  0.99357951  0.58922426  0.62730049     0.10700
H2410       H  0.00497435  0.60934809  0.62235378     0.11200
H2411       H  0.97104567  0.54852670  0.63141381     0.11300
H2412       H  0.95466701  0.53208842  0.63604350     0.11200
H2413       H  0.92963243  0.54944755  0.60783921     0.11400
H2414       H  0.94599598  0.56570946  0.60327736     0.10200
C2415       C  0.03699031  0.63467933  0.56472707    -0.03600
C2416       C  0.04627128  0.62514143  0.56699674    -0.09400
C2417       C  0.05536288  0.62209614  0.55757805    -0.17000
C2418       C  0.05534494  0.62851808  0.54573640     0.25100
C2419       C  0.04588232  0.63775479  0.54322348    -0.18700
C2420       C  0.03672735  0.64080287  0.55265339    -0.07600
C2421       C  0.06543753  0.62598222  0.53653112    -0.14000
C2422       C  0.07447052  0.62369299  0.52958662    -0.13800
C2423       C  0.08575579  0.62072314  0.52205902     0.25000
C2424       C  0.09181783  0.63027413  0.51474473    -0.19200
C2425       C  0.10313791  0.62751462  0.50800167    -0.07600
C2426       C  0.10859504  0.61517796  0.50856821    -0.03700
C2427       C  0.10234018  0.60558836  0.51576502    -0.09000
C2428       C  0.09100727  0.60834866  0.52245038    -0.16700
H2429       H  0.04669164  0.62022227  0.57617656     0.11500
H2430       H  0.06259982  0.61491954  0.55965207     0.10800
H2431       H  0.04574638  0.64279449  0.53409364     0.10700
H2432       H  0.02968955  0.64817587  0.55064123     0.11200
H2433       H  0.08789726  0.63990580  0.51439987     0.11300
H2434       H  0.10776234  0.63509332  0.50256984     0.11200
H2435       H  0.10629723  0.59599234  0.51636345     0.11400
H2436       H  0.08644572  0.60087262  0.52808638     0.10200
C2437       C  0.85873325  0.77076732  0.64014653    -0.03600
C2438       C  0.85419235  0.77070144  0.62738966    -0.09400
C2439       C  0.84286320  0.77717358  0.62417732    -0.17000
C2440       C  0.83588351  0.78366510  0.63369662     0.25100
C2441       C  0.84019788  0.78350603  0.64647494    -0.18700
C2442       C  0.85157198  0.77714105  0.64968004    -0.07600
C2443       C  0.82473811  0.79112603  0.63029219    -0.14000
C2444       C  0.81591300  0.79819969  0.62777881    -0.13800
C2445       C  0.80611317  0.80765184  0.62531237     0.25000
C2446       C  0.80683936  0.81960469  0.63143570    -0.19200
C2447       C  0.79768364  0.82904798  0.62888873    -0.07600
C2448       C  0.78762147  0.82668228  0.62017440    -0.03700
C2449       C  0.78682558  0.81459935  0.61415067    -0.09000
C2450       C  0.79605714  0.80513754  0.61669527    -0.16700
H2451       H  0.85957979  0.76594773  0.61984629     0.11500
H2452       H  0.83967848  0.77731099  0.61424056     0.10800
H2453       H  0.83490538  0.78852204  0.65392074     0.10700
H2454       H  0.85484128  0.77732203  0.65958548     0.11200
H2455       H  0.81457605  0.82168040  0.63810056     0.11300
H2456       H  0.79856264  0.83826581  0.63365589     0.11200
H2457       H  0.77922203  0.81255658  0.60734032     0.11400
H2458       H  0.79542159  0.79592614  0.61186039     0.10200
C2459       C  0.88496765  0.73012009  0.67881751    -0.03600
C2460       C  0.89051193  0.73122750  0.69113487    -0.09400
C2461       C  0.88801092  0.72195748  0.70063717    -0.17000
C2462       C  0.87990298  0.71152805  0.69795124     0.25100
C2463       C  0.87419434  0.71053497  0.68578248    -0.18700
C2464       C  0.87670791  0.71972575  0.67629789    -0.07600
C2465       C  0.87756605  0.70160920  0.70742437    -0.14000
C2466       C  0.87513152  0.69267163  0.71446669    -0.13800
C2467       C  0.87164568  0.68140684  0.72184180     0.25000
C2468       C  0.85997984  0.67519866  0.71935619    -0.19200
C2469       C  0.85679506  0.66386315  0.72585344    -0.07600
C2470       C  0.86524389  0.65852115  0.73495793    -0.03700
C2471       C  0.87684187  0.66492933  0.73761402    -0.09000
C2472       C  0.88002855  0.67628864  0.73107404    -0.16700
H2473       H  0.89693485  0.73910746  0.69333508     0.11500
H2474       H  0.89250621  0.72284985  0.71001189     0.10800
H2475       H  0.86789739  0.70254586  0.68356132     0.10700
H2476       H  0.87227475  0.71861329  0.66692342     0.11200
H2477       H  0.85341248  0.67901617  0.71222676     0.11300
H2478       H  0.84779216  0.65916876  0.72360029     0.11200
H2479       H  0.88354111  0.66104041  0.74456780     0.11400
H2480       H  0.88910377  0.68096152  0.73307602     0.10200
C2481       C  0.91900352  0.73100375  0.62932174    -0.03600
C2482       C  0.91613728  0.72601495  0.61705159    -0.09400
C2483       C  0.92477347  0.71773371  0.61084848    -0.17000
C2484       C  0.93634656  0.71437475  0.61684838     0.25100
C2485       C  0.93929469  0.71944686  0.62898231    -0.18700
C2486       C  0.93071457  0.72769819  0.63516902    -0.07600
C2487       C  0.94507995  0.70537901  0.61093828    -0.14000
C2488       C  0.95285673  0.69758796  0.60728282    -0.13800
C2489       C  0.96260032  0.68813412  0.60453355     0.25000
C2490       C  0.96776727  0.68095228  0.61467084    -0.19200
C2491       C  0.97764190  0.67218846  0.61235790    -0.07600
C2492       C  0.98251633  0.67044483  0.59984282    -0.03700
C2493       C  0.97711538  0.67747826  0.58962926    -0.09000
C2494       C  0.96722314  0.68631051  0.59197992    -0.16700
H2495       H  0.90720239  0.72843631  0.61231055     0.11500
H2496       H  0.92237183  0.71385768  0.60146463     0.10800
H2497       H  0.94819642  0.71690442  0.63374667     0.10700
H2498       H  0.93320277  0.73139741  0.64460029     0.11200
H2499       H  0.96428111  0.68225671  0.62441582     0.11300
H2500       H  0.98157185  0.66688419  0.62041503     0.11200
H2501       H  0.98069652  0.67633014  0.57990704     0.11400
H2502       H  0.96330752  0.69182461  0.58404948     0.10200
C2503       C  0.97874564  0.88344830  0.56501690    -0.03600
C2504       C  0.98033958  0.87855397  0.55247909    -0.09400
C2505       C  0.97120303  0.88116044  0.54289530    -0.17000
C2506       C  0.96043016  0.88870632  0.54574917     0.25100
C2507       C  0.95895811  0.89379257  0.55813946    -0.18700
C2508       C  0.96802348  0.89119253  0.56769292    -0.07600
C2509       C  0.95059525  0.89101954  0.53623839    -0.14000
C2510       C  0.94160638  0.89335510  0.52927163    -0.13800
C2511       C  0.93021614  0.89665121  0.52208569     0.25000
C2512       C  0.92396897  0.90828637  0.52459234    -0.19200
C2513       C  0.91253895  0.91131108  0.51823221    -0.07600
C2514       C  0.90715519  0.90272426  0.50926414    -0.03700
C2515       C  0.91355028  0.89111041  0.50666170    -0.09000
C2516       C  0.92501280  0.88809361  0.51305177    -0.16700
H2517       H  0.98849271  0.87254322  0.55016234     0.11500
H2518       H  0.97244935  0.87715823  0.53333709     0.10800
H2519       H  0.95067888  0.89964073  0.56048004     0.10700
H2520       H  0.96653177  0.89510558  0.57724749     0.11200
H2521       H  0.92784833  0.91496116  0.53160371     0.11300
H2522       H  0.90782881  0.92031552  0.52045646     0.11200
H2523       H  0.90961598  0.88430930  0.49981754     0.11400
H2524       H  0.92971975  0.87902704  0.51106983     0.10200
C2525       C  0.97750665  0.85000407  0.61457355    -0.03600
C2526       C  0.97143625  0.85391195  0.62602309    -0.09400
C2527       C  0.96261647  0.84579827  0.63216446    -0.17000
C2528       C  0.95980976  0.83370157  0.62694351     0.25100
C2529       C  0.96589096  0.82973734  0.61559758    -0.18700
C2530       C  0.97466408  0.83782062  0.60944734    -0.07600
C2531       C  0.95046343  0.82540126  0.63290422    -0.14000
C2532       C  0.94252719  0.81788524  0.63677068    -0.13800
C2533       C  0.93305730  0.80825418  0.63980434     0.25000
C2534       C  0.93232589  0.80284778  0.65214988    -0.19200
C2535       C  0.92378075  0.79272270  0.65459670    -0.07600
C2536       C  0.91595454  0.78788392  0.64467474    -0.03700
C2537       C  0.91648226  0.79366178  0.63244129    -0.09000
C2538       C  0.92497054  0.80375495  0.63003475    -0.16700
H2539       H  0.97342957  0.86325804  0.63015895     0.11500
H2540       H  0.95793107  0.84898909  0.64091774     0.10800
H2541       H  0.96377645  0.82042005  0.61144145     0.10700
H2542       H  0.97918440  0.83454939  0.60064435     0.11200
H2543       H  0.93855799  0.80624870  0.65979058     0.11300
H2544       H  0.92355999  0.78844775  0.66409917     0.11200
H2545       H  0.91054431  0.79017494  0.62461691     0.11400
H2546       H  0.92544677  0.80784252  0.62045128     0.10200
C2547       C  0.22841279  0.68957191  0.62110888    -0.03600
C2548       C  0.22932042  0.70184604  0.61552997    -0.09400
C2549       C  0.21994255  0.71117072  0.61804198    -0.17000
C2550       C  0.20960411  0.70835202  0.62620269     0.25100
C2551       C  0.20878737  0.69622400  0.63195909    -0.18700
C2552       C  0.21810162  0.68689998  0.62943159    -0.07600
C2553       C  0.19962962  0.71769272  0.62851729    -0.14000
C2554       C  0.19076217  0.72482321  0.63077180    -0.13800
C2555       C  0.17965930  0.73251247  0.63388763     0.25000
C2556       C  0.17278600  0.73001736  0.64519961    -0.19200
C2557       C  0.16172301  0.73704896  0.64808853    -0.07600
C2558       C  0.15734219  0.74669182  0.63968223    -0.03700
C2559       C  0.16433568  0.74922129  0.62837457    -0.09000
C2560       C  0.17543421  0.74217476  0.62550501    -0.16700
H2561       H  0.23712580  0.70414392  0.60904425     0.11500
H2562       H  0.22067737  0.72051601  0.61350692     0.10800
H2563       H  0.20085032  0.69391318  0.63829096     0.10700
H2564       H  0.21714443  0.67753994  0.63387357     0.11200
H2565       H  0.17591086  0.72253668  0.65174040     0.11300
H2566       H  0.15651954  0.73484057  0.65684137     0.11200
H2567       H  0.16117269  0.75656930  0.62171258     0.11400
H2568       H  0.18064044  0.74417604  0.61669701     0.10200
C2569       C  0.09964616  0.73426907  0.64314945    -0.03600
C2570       C  0.09947713  0.72828432  0.63100261    -0.09400
C2571       C  0.09088177  0.71834972  0.62840737    -0.17000
C2572       C  0.08230983  0.71421225  0.63788914     0.25100
C2573       C  0.08250760  0.71996212  0.65011462    -0.18700
C2574       C  0.09117775  0.72994249  0.65276055    -0.07600
C2575       C  0.07316498  0.70431954  0.63473123    -0.14000
C2576       C  0.06578475  0.69632038  0.63073209    -0.13800
C2577       C  0.05721156  0.68727846  0.62468734     0.25000
C2578       C  0.05268337  0.67653828  0.63142624    -0.19200
C2579       C  0.04428708  0.66787314  0.62543338    -0.07600
C2580       C  0.04031535  0.66990594  0.61264992    -0.03700
C2581       C  0.04502074  0.68064821  0.60593071    -0.09000
C2582       C  0.05341794  0.68925290  0.61190782    -0.16700
H2583       H  0.10589677  0.73139249  0.62341683     0.11500
H2584       H  0.09081313  0.71399462  0.61891414     0.10800
H2585       H  0.07587812  0.71684935  0.65752168     0.10700
H2586       H  0.09108991  0.73442365  0.66217672     0.11200
H2587       H  0.05558739  0.67489952  0.64131236     0.11300
H2588       H  0.04078391  0.65969042  0.63083082     0.11200
H2589       H  0.04215247  0.68244709  0.59606617     0.11400
H2590       H  0.05690183  0.69749316  0.60657424     0.10200
C2591       C  0.09965963  0.79126422  0.62854924    -0.03600
C2592       C  0.08841871  0.79553138  0.63470426    -0.09400
C2593       C  0.08004298  0.80398709  0.62849443    -0.17000
C2594       C  0.08269603  0.80829397  0.61600243     0.25100
C2595       C  0.09386728  0.80409003  0.60976201    -0.18700
C2596       C  0.10231665  0.79563060  0.61600342    -0.07600
C2597       C  0.07392269  0.81711699  0.60982965    -0.14000
C2598       C  0.06598871  0.82464974  0.60592727    -0.13800
C2599       C  0.05599310  0.83383499  0.60304052     0.25000
C2600       C  0.04953284  0.83370742  0.59117314    -0.19200
C2601       C  0.03927267  0.84217502  0.58895802    -0.07600
C2602       C  0.03533414  0.85078365  0.59864352    -0.03700
C2603       C  0.04207064  0.85100691  0.61037984    -0.09000
C2604       C  0.05229593  0.84262051  0.61254269    -0.16700
H2605       H  0.08610257  0.79235787  0.64436362     0.11500
H2606       H  0.07147284  0.80718055  0.63346207     0.10800
H2607       H  0.09605167  0.80735294  0.60009960     0.10700
H2608       H  0.11087664  0.79246782  0.61101531     0.11200
H2609       H  0.05226574  0.82693047  0.58373839     0.11300
H2610       H  0.03424511  0.84178013  0.57984065     0.11200
H2611       H  0.03930001  0.85754606  0.61800872     0.11400
H2612       H  0.05717673  0.84282548  0.62176565     0.10200
C2613       C  0.61130706  0.53573063  0.15568944    -0.03600
C2614       C  0.60156419  0.54023713  0.16390266    -0.09400
C2615       C  0.60404972  0.55024711  0.17263021    -0.17000
C2616       C  0.61626575  0.55587847  0.17319438     0.25100
C2617       C  0.62592309  0.55154615  0.16490376    -0.18700
C2618       C  0.62348065  0.54155639  0.15624133    -0.07600
C2619       C  0.61920693  0.56573401  0.18254781    -0.14000
C2620       C  0.62285254  0.57355919  0.19034673    -0.13800
C2621       C  0.62854346  0.58226229  0.19956801     0.25000
C2622       C  0.63945601  0.57842208  0.20640802    -0.19200
C2623       C  0.64548226  0.58690877  0.21491891    -0.07600
C2624       C  0.64066201  0.59939486  0.21676008    -0.03700
C2625       C  0.62957003  0.60314750  0.21003577    -0.09000
C2626       C  0.62356655  0.59463373  0.20144998    -0.16700
H2627       H  0.59213398  0.53587326  0.16374475     0.11500
H2628       H  0.59650584  0.55346993  0.17904366     0.10800
H2629       H  0.63541858  0.55577233  0.16525915     0.10700
H2630       H  0.63119303  0.53828676  0.15006727     0.11200
H2631       H  0.64340787  0.56888645  0.20505303     0.11300
H2632       H  0.65396019  0.58370970  0.22001865     0.11200
H2633       H  0.62564637  0.61270247  0.21128988     0.11400
H2634       H  0.61514085  0.59773651  0.19619792     0.10200
C2635       C  0.62318373  0.54064954  0.33812826    -0.03600
C2636       C  0.63487840  0.54670247  0.34108633    -0.09400
C2637       C  0.64039129  0.55541883  0.33241870    -0.17000
C2638       C  0.63427872  0.55816766  0.32071474     0.25100
C2639       C  0.62254773  0.55229253  0.31779948    -0.18700
C2640       C  0.61703201  0.54359935  0.32643195    -0.07600
C2641       C  0.63996890  0.56696456  0.31162673    -0.14000
C2642       C  0.64402281  0.57435584  0.30363782    -0.13800
C2643       C  0.64766568  0.58340620  0.29377225     0.25000
C2644       C  0.65952380  0.58244837  0.28745125    -0.19200
C2645       C  0.66263717  0.59102262  0.27749295    -0.07600
C2646       C  0.65385230  0.60055037  0.27371213    -0.03700
C2647       C  0.64206809  0.60150804  0.28023693    -0.09000
C2648       C  0.63902586  0.59303099  0.29019451    -0.16700
H2649       H  0.63979570  0.54463061  0.35004331     0.11500
H2650       H  0.64944604  0.55995155  0.33480808     0.10800
H2651       H  0.61768886  0.55437556  0.30880614     0.10700
H2652       H  0.60799731  0.53911808  0.32390546     0.11200
H2653       H  0.66626948  0.57499357  0.29009588     0.11300
H2654       H  0.67173071  0.59000991  0.27255678     0.11200
H2655       H  0.63511435  0.60875216  0.27754596     0.11400
H2656       H  0.62982583  0.59387201  0.29498629     0.10200
C2657       C  0.62584551  0.47893341  0.15632340    -0.03600
C2658       C  0.61948885  0.47449307  0.16740671    -0.09400
C2659       C  0.62557422  0.46606609  0.17588583    -0.17000
C2660       C  0.63812556  0.46197113  0.17347658     0.25100
C2661       C  0.64464057  0.46649901  0.16256675    -0.18700
C2662       C  0.63852255  0.47493318  0.15400516    -0.07600
C2663       C  0.64396427  0.45279001  0.18206685    -0.14000
C2664       C  0.64751614  0.44483345  0.18974006    -0.13800
C2665       C  0.65017701  0.43528320  0.19944271     0.25000
C2666       C  0.66274057  0.43297941  0.20366669    -0.19200
C2667       C  0.66503758  0.42419593  0.21364626    -0.07600
C2668       C  0.65476881  0.41766949  0.21951589    -0.03700
C2669       C  0.64223533  0.41982964  0.21498767    -0.09000
C2670       C  0.63997132  0.42856649  0.20503983    -0.16700
H2671       H  0.60973519  0.47742738  0.16946475     0.11500
H2672       H  0.62042233  0.46263158  0.18427619     0.10800
H2673       H  0.65437233  0.46341686  0.16061311     0.10700
H2674       H  0.64366638  0.47829311  0.14559440     0.11200
H2675       H  0.67072410  0.43811795  0.19940310     0.11300
H2676       H  0.67478048  0.42270756  0.21694131     0.11200
H2677       H  0.63413322  0.41493153  0.21929091     0.11400
H2678       H  0.63021066  0.43024888  0.20186131     0.10200
C2679       C  0.61346550  0.48278126  0.33845354    -0.03600
C2680       C  0.60351167  0.47561821  0.33277166    -0.09400
C2681       C  0.60633049  0.46572469  0.32404338    -0.17000
C2682       C  0.61910278  0.46293843  0.32089241     0.25100
C2683       C  0.62903625  0.46998154  0.32658678    -0.18700
C2684       C  0.62625088  0.47980435  0.33531656    -0.07600
C2685       C  0.62218483  0.45303639  0.31169501    -0.14000
C2686       C  0.62582417  0.44513241  0.30401509    -0.13800
C2687       C  0.63132023  0.43624171  0.29492426     0.25000
C2688       C  0.62540990  0.42441285  0.29238500    -0.19200
C2689       C  0.63099614  0.41577695  0.28368246    -0.07600
C2690       C  0.64255476  0.41891162  0.27745397    -0.03700
C2691       C  0.64842265  0.43079243  0.28009320    -0.09000
C2692       C  0.64283113  0.43939075  0.28875420    -0.16700
H2693       H  0.59358712  0.47771540  0.33501273     0.11500
H2694       H  0.59856047  0.46032579  0.31968680     0.10800
H2695       H  0.63894350  0.46794226  0.32420733     0.10700
H2696       H  0.63412358  0.48518733  0.33948654     0.11200
H2697       H  0.61651689  0.42185845  0.29714576     0.11300
H2698       H  0.62630133  0.40667451  0.28183611     0.11200
H2699       H  0.65733597  0.43345873  0.27544824     0.11400
H2700       H  0.64751446  0.44849431  0.29066767     0.10200
C2701       C  0.57698089  0.47892258  0.12274638    -0.03600
C2702       C  0.56512957  0.47922764  0.12922605    -0.09400
C2703       C  0.55588455  0.46967705  0.12695302    -0.17000
C2704       C  0.55835326  0.45977217  0.11813070     0.25100
C2705       C  0.57000168  0.45962408  0.11142484    -0.18700
C2706       C  0.57924509  0.46909698  0.11371765    -0.07600
C2707       C  0.54921581  0.44950919  0.11612166    -0.14000
C2708       C  0.54235287  0.44038792  0.11393890    -0.13800
C2709       C  0.53506107  0.42903831  0.11062442     0.25000
C2710       C  0.53810522  0.42221378  0.09940677    -0.19200
C2711       C  0.53138617  0.41102074  0.09621365    -0.07600
C2712       C  0.52151976  0.40643135  0.10422377    -0.03700
C2713       C  0.51844614  0.41335128  0.11545917    -0.09000
C2714       C  0.52517431  0.42459912  0.11862863    -0.16700
H2715       H  0.56314215  0.48665226  0.13625998     0.11500
H2716       H  0.54690872  0.46991153  0.13221120     0.10800
H2717       H  0.57203487  0.45204839  0.10455533     0.10700
H2718       H  0.58826029  0.46861533  0.10855524     0.11200
H2719       H  0.54575781  0.42549978  0.09315485     0.11300
H2720       H  0.53401434  0.40587642  0.08753309     0.11200
H2721       H  0.51090359  0.41003344  0.12181613     0.11400
H2722       H  0.52273330  0.42976640  0.12735391     0.10200
C2723       C  0.40821421  0.40047651  0.00837393    -0.03600
C2724       C  0.41446783  0.38885912  0.00544542    -0.09400
C2725       C  0.42577308  0.38540557  0.01192194    -0.17000
C2726       C  0.43097304  0.39354465  0.02135162     0.25100
C2727       C  0.42488600  0.40520225  0.02413841    -0.18700
C2728       C  0.41361421  0.40865058  0.01771143    -0.07600
C2729       C  0.44223704  0.38988308  0.02860268    -0.14000
C2730       C  0.45117407  0.38755550  0.03566332    -0.13800
C2731       C  0.46104657  0.38556095  0.04524595     0.25000
C2732       C  0.46005681  0.39176565  0.05717394    -0.19200
C2733       C  0.46918201  0.38957658  0.06679889    -0.07600
C2734       C  0.47949784  0.38113820  0.06465629    -0.03700
C2735       C  0.48061191  0.37511864  0.05256223    -0.09000
C2736       C  0.47141948  0.37730500  0.04291808    -0.16700
H2737       H  0.41052805  0.38237997  0.99829799     0.11500
H2738       H  0.43035689  0.37633551  0.00968908     0.10800
H2739       H  0.42877118  0.41157634  0.03142487     0.10700
H2740       H  0.40904089  0.41766278  0.02016682     0.11200
H2741       H  0.45210331  0.39818568  0.05911072     0.11300
H2742       H  0.46804983  0.39435294  0.07600087     0.11200
H2743       H  0.48842936  0.36854027  0.05065690     0.11400
H2744       H  0.47231177  0.37243749  0.03373320     0.10200
C2745       C  0.65056570  0.35931850  0.23541462    -0.03600
C2746       C  0.65917237  0.35361822  0.22670120    -0.09400
C2747       C  0.65605092  0.34209492  0.22058184    -0.17000
C2748       C  0.64430929  0.33609307  0.22309247     0.25100
C2749       C  0.63573858  0.34157771  0.23191059    -0.18700
C2750       C  0.63885638  0.35314381  0.23806813    -0.07600
C2751       C  0.64088100  0.32476111  0.21595047    -0.14000
C2752       C  0.63859241  0.31595056  0.20877352    -0.13800
C2753       C  0.63642601  0.30645160  0.19894716     0.25000
C2754       C  0.64139562  0.30848965  0.18659886    -0.19200
C2755       C  0.63899452  0.29964585  0.17677883    -0.07600
C2756       C  0.63158982  0.28861433  0.17919049    -0.03700
C2757       C  0.62675821  0.28652250  0.19166133    -0.09000
C2758       C  0.62916275  0.29542200  0.20149792    -0.16700
H2759       H  0.66825476  0.35816447  0.22446439     0.11500
H2760       H  0.66271237  0.33797504  0.21371003     0.10800
H2761       H  0.62658601  0.33703860  0.23385918     0.10700
H2762       H  0.63205768  0.35734104  0.24474125     0.11200
H2763       H  0.64702050  0.31700033  0.18452157     0.11300
H2764       H  0.64283086  0.30151051  0.16726706     0.11200
H2765       H  0.62100310  0.27811379  0.19375560     0.11400
H2766       H  0.62525860  0.29377201  0.21103111     0.10200
C2767       C  0.53557253  0.34885850  0.09951570    -0.03600
C2768       C  0.54264797  0.34970588  0.11102205    -0.09400
C2769       C  0.55308128  0.34158437  0.11320421    -0.17000
C2770       C  0.55656403  0.33243434  0.10396828     0.25100
C2771       C  0.54970073  0.33163225  0.09237775    -0.18700
C2772       C  0.53928802  0.33985768  0.09012114    -0.07600
C2773       C  0.56666879  0.32344695  0.10687491    -0.14000
C2774       C  0.57455576  0.31586265  0.11068002    -0.13800
C2775       C  0.58306140  0.30681779  0.11678385     0.25000
C2776       C  0.57975314  0.30182174  0.12884145    -0.19200
C2777       C  0.58790143  0.29319785  0.13506369    -0.07600
C2778       C  0.59952664  0.28945501  0.12932901    -0.03700
C2779       C  0.60281178  0.29445308  0.11718396    -0.09000
C2780       C  0.59459790  0.30310200  0.11093651    -0.16700
H2781       H  0.54004419  0.35658866  0.11840104     0.11500
H2782       H  0.55828375  0.34227753  0.12222019     0.10800
H2783       H  0.55225410  0.32452027  0.08519528     0.10700
H2784       H  0.53396447  0.33897511  0.08120370     0.11200
H2785       H  0.57087270  0.30463823  0.13347239     0.11300
H2786       H  0.58512279  0.28951392  0.14441251     0.11200
H2787       H  0.61170249  0.29170126  0.11255493     0.11400
H2788       H  0.59726029  0.30691626  0.10160023     0.10200
C2789       C  0.35886816  0.27117051  0.13926649    -0.03600
C2790       C  0.35236275  0.27811669  0.14887990    -0.09400
C2791       C  0.34090043  0.28448101  0.14607461    -0.17000
C2792       C  0.33575522  0.28401504  0.13363080     0.25100
C2793       C  0.34208898  0.27700910  0.12400758    -0.18700
C2794       C  0.35357748  0.27059365  0.12681048    -0.07600
C2795       C  0.32434593  0.29128054  0.13070015    -0.14000
C2796       C  0.31530701  0.29824119  0.12867257    -0.13800
C2797       C  0.30538163  0.30764854  0.12654607     0.25000
C2798       C  0.29558034  0.30543340  0.11756490    -0.19200
C2799       C  0.28659455  0.31508041  0.11486641    -0.07600
C2800       C  0.28740196  0.32707059  0.12106896    -0.03700
C2801       C  0.29705114  0.32906088  0.13033073    -0.09000
C2802       C  0.30595151  0.31941203  0.13305742    -0.16700
H2803       H  0.35620545  0.27874526  0.15855729     0.11500
H2804       H  0.33613814  0.28992433  0.15358475     0.10800
H2805       H  0.33824496  0.27664543  0.11431578     0.10700
H2806       H  0.35840671  0.26535068  0.11921355     0.11200
H2807       H  0.29504635  0.29636453  0.11245394     0.11300
H2808       H  0.27926295  0.31330197  0.10769060     0.11200
H2809       H  0.29786435  0.33817227  0.13531231     0.11400
H2810       H  0.31346627  0.32124000  0.14004092     0.10200
C2811       C  0.47769502  0.34909795  0.11485332    -0.03600
C2812       C  0.47079640  0.35365609  0.12556253    -0.09400
C2813       C  0.46206081  0.34563908  0.13194365    -0.17000
C2814       C  0.46019557  0.33299112  0.12771317     0.25100
C2815       C  0.46704141  0.32841539  0.11706334    -0.18700
C2816       C  0.47571186  0.33640339  0.11066325    -0.07600
C2817       C  0.45101507  0.32469999  0.13391026    -0.14000
C2818       C  0.44322668  0.31701898  0.13772826    -0.13800
C2819       C  0.43386958  0.30716464  0.14029460     0.25000
C2820       C  0.43243183  0.30189979  0.15263853    -0.19200
C2821       C  0.42380679  0.29174915  0.15466854    -0.07600
C2822       C  0.41661562  0.28676199  0.14433603    -0.03700
C2823       C  0.41796673  0.29229991  0.13206432    -0.09000
C2824       C  0.42652476  0.30240910  0.13007271    -0.16700
H2825       H  0.47210272  0.36341722  0.12894472     0.11500
H2826       H  0.45673779  0.34931093  0.14011913     0.10800
H2827       H  0.46562559  0.31867427  0.11365655     0.10700
H2828       H  0.48087867  0.33263118  0.10243862     0.11200
H2829       H  0.43811136  0.30548117  0.16061863     0.11300
H2830       H  0.42296650  0.28763284  0.16420695     0.11200
H2831       H  0.41256018  0.28866872  0.12392174     0.11400
H2832       H  0.42758311  0.30637274  0.12048035     0.10200
C2833       C  0.48262533  0.16833859  0.10042748    -0.03600
C2834       C  0.47906474  0.17750189  0.09113097    -0.09400
C2835       C  0.46922237  0.18634932  0.09372194    -0.17000
C2836       C  0.46278084  0.18607806  0.10558908     0.25100
C2837       C  0.46619565  0.17687111  0.11478791    -0.18700
C2838       C  0.47602583  0.16809419  0.11224817    -0.07600
C2839       C  0.45288867  0.19534304  0.10862991    -0.14000
C2840       C  0.44485184  0.20287720  0.11233046    -0.13800
C2841       C  0.43583036  0.21179022  0.11800885     0.25000
C2842       C  0.43957113  0.21911147  0.12868422    -0.19200
C2843       C  0.43093218  0.22757811  0.13450531    -0.07600
C2844       C  0.41837329  0.22891018  0.12972572    -0.03700
C2845       C  0.41462907  0.22154077  0.11899610    -0.09000
C2846       C  0.42331034  0.21300503  0.11318813    -0.16700
H2847       H  0.48404299  0.17798350  0.08199257     0.11500
H2848       H  0.46673365  0.19346469  0.08653272     0.10800
H2849       H  0.46134108  0.17655970  0.12401233     0.10700
H2850       H  0.47855240  0.16118073  0.11961564     0.11200
H2851       H  0.44919151  0.21824237  0.13255983     0.11300
H2852       H  0.43410588  0.23311055  0.14275301     0.11200
H2853       H  0.40500430  0.22233495  0.11514897     0.11400
H2854       H  0.42025198  0.20734229  0.10498111     0.10200
C2855       C  0.53983430  0.16843868  0.11427060    -0.03600
C2856       C  0.54419770  0.17945031  0.10776082    -0.09400
C2857       C  0.55281403  0.18786908  0.11367292    -0.17000
C2858       C  0.55716245  0.18545023  0.12619095     0.25100
C2859       C  0.55291241  0.17448423  0.13275021    -0.18700
C2860       C  0.54430085  0.16599177  0.12681052    -0.07600
C2861       C  0.56602028  0.19427938  0.13213410    -0.14000
C2862       C  0.57353597  0.20221087  0.13601219    -0.13800
C2863       C  0.58265154  0.21217527  0.13903043     0.25000
C2864       C  0.58365550  0.21721929  0.15152411    -0.19200
C2865       C  0.59222341  0.22731111  0.15407668    -0.07600
C2866       C  0.59981634  0.23243436  0.14412302    -0.03700
C2867       C  0.59883468  0.22716668  0.13168400    -0.09000
C2868       C  0.59032095  0.21713506  0.12917132    -0.16700
H2869       H  0.54096919  0.18155409  0.09807191     0.11500
H2870       H  0.55607143  0.19628686  0.10847808     0.10800
H2871       H  0.55623968  0.17251084  0.14244014     0.10700
H2872       H  0.54107992  0.15758033  0.13203190     0.11200
H2873       H  0.57772623  0.21347256  0.15922468     0.11300
H2874       H  0.59276236  0.23122548  0.16372955     0.11200
H2875       H  0.60453443  0.23092181  0.12381696     0.11400
H2876       H  0.58960453  0.21334489  0.11946313     0.10200
C2877       C  0.61041619  0.11631573  0.00874187    -0.03600
C2878       C  0.60615761  0.10838867  0.01885262    -0.09400
C2879       C  0.59490852  0.11131595  0.02560972    -0.17000
C2880       C  0.58767825  0.12217856  0.02236490     0.25100
C2881       C  0.59172644  0.13001598  0.01215633    -0.18700
C2882       C  0.60302341  0.12711397  0.00538989    -0.07600
C2883       C  0.57645155  0.12545390  0.02990546    -0.14000
C2884       C  0.56758582  0.12783282  0.03706299    -0.13800
C2885       C  0.55777616  0.13022431  0.04665278     0.25000
C2886       C  0.54641414  0.13673691  0.04351426    -0.19200
C2887       C  0.53715845  0.13920716  0.05304275    -0.07600
C2888       C  0.53916029  0.13517349  0.06582575    -0.03700
C2889       C  0.55053717  0.12855060  0.06883089    -0.09000
C2890       C  0.55974333  0.12611436  0.05933777    -0.16700
H2891       H  0.61163922  0.10002231  0.02168879     0.11500
H2892       H  0.59194199  0.10518449  0.03350040     0.10800
H2893       H  0.58625263  0.13846520  0.00953928     0.10700
H2894       H  0.60604962  0.13338527  0.99764388     0.11200
H2895       H  0.54475133  0.13998739  0.03374262     0.11300
H2896       H  0.52851868  0.14436275  0.05045044     0.11200
H2897       H  0.55240467  0.12536283  0.07858119     0.11400
H2898       H  0.56847227  0.12108867  0.06193045     0.10200
C2899       C  0.61645783  0.02076501  0.89623333    -0.03600
C2900       C  0.60807544  0.03010575  0.90123613    -0.09400
C2901       C  0.61104777  0.03664845  0.91264489    -0.17000
C2902       C  0.62243141  0.03396920  0.91929028     0.25100
C2903       C  0.63079276  0.02457821  0.91445644    -0.18700
C2904       C  0.62783595  0.01801815  0.90300066    -0.07600
C2905       C  0.62567227  0.04129599  0.93071306    -0.14000
C2906       C  0.62799725  0.04833063  0.93972151    -0.13800
C2907       C  0.63031102  0.05789962  0.94959398     0.25000
C2908       C  0.63940783  0.05588814  0.95935937    -0.19200
C2909       C  0.64206196  0.06563325  0.96835823    -0.07600
C2910       C  0.63568372  0.07752596  0.96763094    -0.03700
C2911       C  0.62638937  0.07932373  0.95797683    -0.09000
C2912       C  0.62372887  0.06960111  0.94906543    -0.16700
H2913       H  0.59926704  0.03247666  0.89624091     0.11500
H2914       H  0.60451582  0.04392431  0.91620614     0.10800
H2915       H  0.63966127  0.02243157  0.91945239     0.10700
H2916       H  0.63448827  0.01089278  0.89938326     0.11200
H2917       H  0.64459700  0.04689031  0.95988894     0.11300
H2918       H  0.64927999  0.06398482  0.97566922     0.11200
H2919       H  0.62129241  0.08834989  0.95717861     0.11400
H2920       H  0.61667146  0.07131270  0.94158761     0.10200
C2921       C  0.74724081  0.15374442  0.84672424    -0.03600
C2922       C  0.74832033  0.14193965  0.84022028    -0.09400
C2923       C  0.74140608  0.13975390  0.82883426    -0.17000
C2924       C  0.73340216  0.14934927  0.82382679     0.25100
C2925       C  0.73245602  0.16117337  0.83016001    -0.18700
C2926       C  0.73932731  0.16336638  0.84150541    -0.07600
C2927       C  0.72577335  0.14699724  0.81247763    -0.14000
C2928       C  0.71876648  0.14522192  0.80338505    -0.13800
C2929       C  0.70962549  0.14301302  0.79319549     0.25000
C2930       C  0.69750255  0.14873862  0.79384029    -0.19200
C2931       C  0.68815456  0.14574692  0.78466639    -0.07600
C2932       C  0.69080102  0.13696937  0.77470576    -0.03700
C2933       C  0.70315549  0.13163902  0.77379999    -0.09000
C2934       C  0.71250820  0.13462652  0.78303369    -0.16700
H2935       H  0.75433101  0.13436100  0.84403143     0.11500
H2936       H  0.74217609  0.13054044  0.82403192     0.10800
H2937       H  0.72627240  0.16865536  0.82641631     0.10700
H2938       H  0.73830690  0.17255903  0.84628982     0.11200
H2939       H  0.69515764  0.15526053  0.80163431     0.11300
H2940       H  0.67874387  0.15005080  0.78556928     0.11200
H2941       H  0.70544633  0.12485982  0.76622431     0.11400
H2942       H  0.72187054  0.13014401  0.78243596     0.10200
C2943       C  0.85908077  0.24825176  0.85286377    -0.03600
C2944       C  0.85337079  0.24039487  0.84343576    -0.09400
C2945       C  0.84206637  0.23368609  0.84612228    -0.17000
C2946       C  0.83630423  0.23473149  0.85825218     0.25100
C2947       C  0.84167839  0.24287553  0.86756162    -0.18700
C2948       C  0.85299680  0.24963114  0.86487668    -0.07600
C2949       C  0.82544205  0.22673867  0.86135570    -0.14000
C2950       C  0.81694418  0.21922086  0.86372186    -0.13800
C2951       C  0.80743862  0.20949657  0.86630104     0.25000
C2952       C  0.80868721  0.19730892  0.86072857    -0.19200
C2953       C  0.79973401  0.18768552  0.86345812    -0.07600
C2954       C  0.78939238  0.19013458  0.87180109    -0.03700
C2955       C  0.78810634  0.20243553  0.87725257    -0.09000
C2956       C  0.79710541  0.21205159  0.87453200    -0.16700
H2957       H  0.85780751  0.23919018  0.83407900     0.11500
H2958       H  0.83800797  0.22741057  0.83884473     0.10800
H2959       H  0.83731209  0.24374623  0.87699211     0.10700
H2960       H  0.85717402  0.25563751  0.87230445     0.11200
H2961       H  0.81664940  0.19520779  0.85436096     0.11300
H2962       H  0.80096976  0.17829871  0.85912966     0.11200
H2963       H  0.78026244  0.20455892  0.88374853     0.11400
H2964       H  0.79606275  0.22144271  0.87893309     0.10200
C2965       C  0.66945871  0.12779536  0.96586935    -0.03600
C2966       C  0.68145202  0.12234490  0.96290456    -0.09400
C2967       C  0.69003575  0.12870442  0.95475457    -0.17000
C2968       C  0.68680435  0.14061821  0.94942456     0.25100
C2969       C  0.67489659  0.14615732  0.95233824    -0.18700
C2970       C  0.66626950  0.13979030  0.96052507    -0.07600
C2971       C  0.69561669  0.14678147  0.94063923    -0.14000
C2972       C  0.70346205  0.15057844  0.93295532    -0.13800
C2973       C  0.71323355  0.15314780  0.92343839     0.25000
C2974       C  0.71890749  0.16531940  0.92228157    -0.19200
C2975       C  0.72883937  0.16732894  0.91336577    -0.07600
C2976       C  0.73320773  0.15715344  0.90558698    -0.03700
C2977       C  0.72728224  0.14507156  0.90667875    -0.09000
C2978       C  0.71739066  0.14310434  0.91551879    -0.16700
H2979       H  0.68420964  0.11313599  0.96687861     0.11500
H2980       H  0.69917972  0.12427783  0.95254474     0.10800
H2981       H  0.67225358  0.15534873  0.94823375     0.10700
H2982       H  0.65711704  0.14422793  0.96266152     0.11200
H2983       H  0.71579745  0.17317586  0.92837207     0.11300
H2984       H  0.73326232  0.17672044  0.91274288     0.11200
H2985       H  0.73042377  0.13705588  0.90081957     0.11400
H2986       H  0.71309976  0.13364527  0.91631655     0.10200
C2987       C  0.97932985  0.13636705  0.92929036    -0.03600
C2988       C  0.96983550  0.12691888  0.92752018    -0.09400
C2989       C  0.96062050  0.12468429  0.93703814    -0.17000
C2990       C  0.96072811  0.13186756  0.94844417     0.25100
C2991       C  0.97023046  0.14120374  0.95035871    -0.18700
C2992       C  0.97950356  0.14343220  0.94084263    -0.07600
C2993       C  0.95085859  0.12977785  0.95794870    -0.14000
C2994       C  0.94205139  0.12751735  0.96515416    -0.13800
C2995       C  0.93096748  0.12408214  0.97271719     0.25000
C2996       C  0.92626511  0.11149996  0.97218218    -0.19200
C2997       C  0.91497466  0.10823056  0.97865067    -0.07600
C2998       C  0.90824290  0.11749382  0.98582099    -0.03700
C2999       C  0.91316712  0.13005508  0.98659215    -0.09000
C3000       C  0.92445134  0.13334159  0.98001991    -0.16700
H3001       H  0.96943119  0.12135930  0.91870699     0.11500
H3002       H  0.95331037  0.11744914  0.93543048     0.10800
H3003       H  0.97038572  0.14685349  0.95913073     0.10700
H3004       H  0.98664757  0.15083129  0.94241059     0.11200
H3005       H  0.93120058  0.10425790  0.96655063     0.11300
H3006       H  0.91143206  0.09846991  0.97792611     0.11200
H3007       H  0.90814270  0.13738436  0.99200948     0.11400
H3008       H  0.92796075  0.14313025  0.98045211     0.10200
C3009       C  0.88365406  0.07777695  0.02635532    -0.03600
C3010       C  0.88892210  0.08087482  0.03843912    -0.09400
C3011       C  0.89155694  0.07126954  0.04741008    -0.17000
C3012       C  0.88902855  0.05841708  0.04443272     0.25100
C3013       C  0.88389733  0.05518425  0.03237528    -0.18700
C3014       C  0.88118885  0.06483152  0.02336231    -0.07600
C3015       C  0.89160939  0.04870325  0.05392711    -0.14000
C3016       C  0.89400966  0.04139557  0.06259505    -0.13800
C3017       C  0.89714185  0.03363396  0.07360723     0.25000
C3018       C  0.88784112  0.02571101  0.07923458    -0.19200
C3019       C  0.89067200  0.01889847  0.09049694    -0.07600
C3020       C  0.90280773  0.02005822  0.09628496    -0.03700
C3021       C  0.91217834  0.02780192  0.09040312    -0.09000
C3022       C  0.90935268  0.03454705  0.07913351    -0.16700
H3023       H  0.89084605  0.09076809  0.04104939     0.11500
H3024       H  0.89549114  0.07388342  0.05671636     0.10800
H3025       H  0.88190592  0.04524463  0.02998725     0.10700
H3026       H  0.87711092  0.06219835  0.01413512     0.11200
H3027       H  0.87833344  0.02500063  0.07506476     0.11300
H3028       H  0.88327968  0.01302456  0.09486442     0.11200
H3029       H  0.92161829  0.02883367  0.09464382     0.11400
H3030       H  0.91660678  0.04068215  0.07488212     0.10200
C3031       C  0.79024576  0.14241548  0.90619839    -0.03600
C3032       C  0.79534820  0.13018494  0.90361150    -0.09400
C3033       C  0.80394250  0.12447573  0.91227928    -0.17000
C3034       C  0.80749289  0.13094722  0.92358088     0.25100
C3035       C  0.80245838  0.14312338  0.92617264    -0.18700
C3036       C  0.79389615  0.14881322  0.91756740    -0.07600
C3037       C  0.81631543  0.12528772  0.93261147    -0.14000
C3038       C  0.82368473  0.12168181  0.94080274    -0.13800
C3039       C  0.83250924  0.11878526  0.95106630     0.25000
C3040       C  0.83901711  0.12884019  0.95717819    -0.19200
C3041       C  0.84749902  0.12626857  0.96725001    -0.07600
C3042       C  0.84960557  0.11357579  0.97136664    -0.03700
C3043       C  0.84302349  0.10349550  0.96522195    -0.09000
C3044       C  0.83450353  0.10610195  0.95510849    -0.16700
H3045       H  0.79269038  0.12505576  0.89492609     0.11500
H3046       H  0.80780625  0.11504724  0.91017493     0.10800
H3047       H  0.80515290  0.14823144  0.93486332     0.10700
H3048       H  0.79014052  0.15824987  0.91982173     0.11200
H3049       H  0.83750271  0.13869412  0.95418212     0.11300
H3050       H  0.85237278  0.13423744  0.97184852     0.11200
H3051       H  0.84441406  0.09364919  0.96826950     0.11400
H3052       H  0.82945356  0.09825001  0.95047958     0.10200
C3053       C  0.76921722  0.15433201  0.14721386    -0.03600
C3054       C  0.76679242  0.14279642  0.15381598    -0.09400
C3055       C  0.77300059  0.14018751  0.16547994    -0.17000
C3056       C  0.78163292  0.14910133  0.17069135     0.25100
C3057       C  0.78382013  0.16075634  0.16433970    -0.18700
C3058       C  0.77765011  0.16336934  0.15267712    -0.07600
C3059       C  0.78899772  0.14595337  0.18199299    -0.14000
C3060       C  0.79622400  0.14341558  0.19070432    -0.13800
C3061       C  0.80604449  0.14066371  0.20006601     0.25000
C3062       C  0.81834251  0.14575110  0.19830858    -0.19200
C3063       C  0.82815642  0.14278788  0.20696575    -0.07600
C3064       C  0.82581696  0.13467428  0.21753887    -0.03700
C3065       C  0.81340210  0.12968911  0.21934443    -0.09000
C3066       C  0.80356429  0.13266103  0.21062774    -0.16700
H3067       H  0.76031407  0.13568764  0.14983284     0.11500
H3068       H  0.77128591  0.13110590  0.17028096     0.10800
H3069       H  0.79052238  0.16770282  0.16825228     0.10700
H3070       H  0.77964862  0.17235757  0.14782889     0.11200
H3071       H  0.82039006  0.15190548  0.19014734     0.11300
H3072       H  0.83762217  0.14674180  0.20529417     0.11200
H3073       H  0.81135681  0.12336633  0.22736777     0.11400
H3074       H  0.79408755  0.12861805  0.21204448     0.10200
C3075       C  0.65819295  0.24778322  0.14129863    -0.03600
C3076       C  0.66348521  0.23912895  0.15022697    -0.09400
C3077       C  0.67473804  0.23245485  0.14732785    -0.17000
C3078       C  0.68087702  0.23437100  0.13549865     0.25100
C3079       C  0.67581561  0.24314939  0.12663640    -0.18700
C3080       C  0.66453121  0.24984653  0.12952160    -0.07600
C3081       C  0.69203116  0.22688141  0.13231569    -0.14000
C3082       C  0.70090407  0.21984228  0.12996120    -0.13800
C3083       C  0.71074628  0.21047394  0.12751692     0.25000
C3084       C  0.72096995  0.21320755  0.11918930    -0.19200
C3085       C  0.73012183  0.20374573  0.11642035    -0.07600
C3086       C  0.72905450  0.19146194  0.12193006    -0.03700
C3087       C  0.71889923  0.18891695  0.13047368    -0.09000
C3088       C  0.70982105  0.19835666  0.13323855    -0.16700
H3089       H  0.65879877  0.23733673  0.15936375     0.11500
H3090       H  0.67853915  0.22564458  0.15423387     0.10800
H3091       H  0.68047262  0.24466364  0.11742863     0.10700
H3092       H  0.66064763  0.25644444  0.12246832     0.11200
H3093       H  0.72175581  0.22256986  0.11469639     0.11300
H3094       H  0.73783414  0.20593011  0.10978722     0.11200
H3095       H  0.71784593  0.17954831  0.13487663     0.11400
H3096       H  0.70195537  0.19613240  0.13969402     0.10200
C3097       C  0.78305750  0.15492211  0.08691319    -0.03600
C3098       C  0.78857088  0.16465947  0.07932380    -0.09400
C3099       C  0.79824219  0.16168754  0.07040072    -0.17000
C3100       C  0.80246504  0.14897439  0.06899567     0.25100
C3101       C  0.79699775  0.13928080  0.07652681    -0.18700
C3102       C  0.78738625  0.14221622  0.08540836    -0.07600
C3103       C  0.81237579  0.14565971  0.05989471    -0.14000
C3104       C  0.82051728  0.14172649  0.05262395    -0.13800
C3105       C  0.82991870  0.13596597  0.04423309     0.25000
C3106       C  0.82741165  0.12398681  0.03863415    -0.19200
C3107       C  0.83648828  0.11824301  0.03057551    -0.07600
C3108       C  0.84822444  0.12440965  0.02800498    -0.03700
C3109       C  0.85073584  0.13639044  0.03373175    -0.09000
C3110       C  0.84162235  0.14213336  0.04180552    -0.16700
H3111       H  0.78536323  0.17450695  0.08023340     0.11500
H3112       H  0.80238880  0.16927381  0.06459659     0.10800
H3113       H  0.80015323  0.12941535  0.07551635     0.10700
H3114       H  0.78328667  0.13449434  0.09105845     0.11200
H3115       H  0.81842449  0.11908522  0.04048500     0.11300
H3116       H  0.83428707  0.10900813  0.02630280     0.11200
H3117       H  0.85969299  0.14134580  0.03190237     0.11400
H3118       H  0.84369423  0.15138314  0.04613500     0.10200
C3119       C  0.66822550  0.11348730  0.02322764    -0.03600
C3120       C  0.67623106  0.10364502  0.02783796    -0.09400
C3121       C  0.68447456  0.10589645  0.03826447    -0.17000
C3122       C  0.68473412  0.11797007  0.04422267     0.25100
C3123       C  0.67667700  0.12775701  0.03977166    -0.18700
C3124       C  0.66848837  0.12554693  0.02934308    -0.07600
C3125       C  0.69355971  0.12062686  0.05456522    -0.14000
C3126       C  0.70095209  0.12421206  0.06275648    -0.13800
C3127       C  0.70968871  0.13026188  0.07162862     0.25000
C3128       C  0.71453397  0.14242086  0.06863161    -0.19200
C3129       C  0.72286240  0.14863340  0.07710042    -0.07600
C3130       C  0.72650925  0.14276127  0.08872233    -0.03700
C3131       C  0.72159124  0.13054576  0.09175007    -0.09000
C3132       C  0.71320328  0.12431455  0.08321790    -0.16700
H3133       H  0.67625772  0.09429126  0.02326204     0.11500
H3134       H  0.69073365  0.09827537  0.04158292     0.10800
H3135       H  0.67683378  0.13715116  0.04426718     0.10700
H3136       H  0.66243290  0.13331026  0.02600536     0.11200
H3137       H  0.71185658  0.14712741  0.05971166     0.11300
H3138       H  0.72650073  0.15803058  0.07450503     0.11200
H3139       H  0.72427414  0.12581305  0.10063802     0.11400
H3140       H  0.70947745  0.11490733  0.08564612     0.10200
C3141       C  0.63478671  0.78766238  0.81436509    -0.03600
C3142       C  0.64319934  0.79802587  0.81644888    -0.09400
C3143       C  0.64575576  0.80679521  0.80660676    -0.17000
C3144       C  0.63996430  0.80535054  0.79453100     0.25100
C3145       C  0.63186216  0.79484884  0.79222341    -0.18700
C3146       C  0.62929325  0.78602229  0.80209136    -0.07600
C3147       C  0.64196658  0.81505564  0.78484880    -0.14000
C3148       C  0.64403519  0.82402881  0.77779605    -0.13800
C3149       C  0.64719886  0.83548407  0.77069545     0.25000
C3150       C  0.65837416  0.84224332  0.77383387    -0.19200
C3151       C  0.66129001  0.85373678  0.76756867    -0.07600
C3152       C  0.65303949  0.85867379  0.75807345    -0.03700
C3153       C  0.64189604  0.85176723  0.75481809    -0.09000
C3154       C  0.63898312  0.84022540  0.76112539    -0.16700
H3155       H  0.64758659  0.79953365  0.82578922     0.11500
H3156       H  0.65204329  0.81487429  0.80850854     0.10800
H3157       H  0.62732970  0.79363571  0.78290475     0.10700
H3158       H  0.62277645  0.77812844  0.80022864     0.11200
H3159       H  0.66476501  0.83871167  0.78126791     0.11300
H3160       H  0.66993196  0.85884967  0.77028808     0.11200
H3161       H  0.63537440  0.85536799  0.74754732     0.11400
H3162       H  0.63026671  0.83510229  0.75866354     0.10200
C3163       C  0.52081471  0.90855676  0.89134435    -0.03600
C3164       C  0.53022777  0.91353369  0.89968751    -0.09400
C3165       C  0.53690746  0.92475695  0.89648844    -0.17000
C3166       C  0.53426532  0.93118174  0.88493475     0.25100
C3167       C  0.52477268  0.92639359  0.87666600    -0.18700
C3168       C  0.51807923  0.91516052  0.87984930    -0.07600
C3169       C  0.54172071  0.94232806  0.88138199    -0.14000
C3170       C  0.54880436  0.95113785  0.87873896    -0.13800
C3171       C  0.55838634  0.96082359  0.87614643     0.25000
C3172       C  0.55584004  0.97115665  0.86786842    -0.19200
C3173       C  0.56544860  0.98022777  0.86518136    -0.07600
C3174       C  0.57771161  0.97901536  0.87071766    -0.03700
C3175       C  0.58010504  0.96867469  0.87909553    -0.09000
C3176       C  0.57052023  0.95968182  0.88178862    -0.16700
H3177       H  0.53258038  0.90863796  0.90857976     0.11500
H3178       H  0.54427142  0.92831755  0.90294029     0.10800
H3179       H  0.52267417  0.93123336  0.86766899     0.10700
H3180       H  0.51090952  0.91152916  0.87322238     0.11200
H3181       H  0.54649486  0.97213458  0.86340907     0.11300
H3182       H  0.56335816  0.98805606  0.85864720     0.11200
H3183       H  0.58944606  0.96746200  0.88349906     0.11400
H3184       H  0.57262582  0.95173782  0.88819303     0.10200
C3185       C  0.60090936  0.79212467  0.86334819    -0.03600
C3186       C  0.60377330  0.79727998  0.87554611    -0.09400
C3187       C  0.59525331  0.80585609  0.88149791    -0.17000
C3188       C  0.58381268  0.80933565  0.87531106     0.25100
C3189       C  0.58098295  0.80428402  0.86314562    -0.18700
C3190       C  0.58944840  0.79575311  0.85720614    -0.07600
C3191       C  0.57487328  0.81808684  0.88125594    -0.14000
C3192       C  0.56676936  0.82541065  0.88514333    -0.13800
C3193       C  0.55663079  0.83423797  0.88845785     0.25000
C3194       C  0.55334636  0.84401224  0.87982451    -0.19200
C3195       C  0.54309592  0.85221600  0.88253602    -0.07600
C3196       C  0.53599144  0.85081315  0.89396866    -0.03700
C3197       C  0.53946872  0.84113376  0.90273716    -0.09000
C3198       C  0.54970380  0.83284078  0.89995088    -0.16700
H3199       H  0.61252525  0.79462667  0.88049248     0.11500
H3200       H  0.59756046  0.80972512  0.89091040     0.10800
H3201       H  0.57218296  0.80691358  0.85824834     0.10700
H3202       H  0.58697222  0.79193356  0.84781854     0.11200
H3203       H  0.55859113  0.84517537  0.87089028     0.11300
H3204       H  0.54064726  0.85959618  0.87561159     0.11200
H3205       H  0.53408919  0.83978448  0.91155572     0.11400
H3206       H  0.55209905  0.82524476  0.90666697     0.10200
C3207       C  0.59964106  0.73470775  0.85174738    -0.03600
C3208       C  0.59245401  0.72899836  0.84180660    -0.09400
C3209       C  0.58386597  0.71900099  0.84455315    -0.17000
C3210       C  0.58240820  0.71462908  0.85723410     0.25100
C3211       C  0.58962393  0.72020419  0.86713355    -0.18700
C3212       C  0.59817053  0.73016887  0.86442295    -0.07600
C3213       C  0.57325514  0.70473357  0.86031194    -0.14000
C3214       C  0.56556624  0.69688478  0.86397843    -0.13800
C3215       C  0.55649364  0.68810474  0.86961972     0.25000
C3216       C  0.55257421  0.67703798  0.86300274    -0.19200
C3217       C  0.54404683  0.66839428  0.86881533    -0.07600
C3218       C  0.53934722  0.67077757  0.88128234    -0.03700
C3219       C  0.54321451  0.68200127  0.88776518    -0.09000
C3220       C  0.55174746  0.69057445  0.88197872    -0.16700
H3221       H  0.59338411  0.73233507  0.83197282     0.11500
H3222       H  0.57828633  0.71477038  0.83682207     0.10800
H3223       H  0.58855204  0.71693320  0.87698220     0.10700
H3224       H  0.60356143  0.73438530  0.87228169     0.11200
H3225       H  0.55617007  0.67505296  0.85341546     0.11300
H3226       H  0.54114481  0.65985958  0.86358502     0.11200
H3227       H  0.53973778  0.68410090  0.89736854     0.11400
H3228       H  0.55471654  0.69910335  0.88719331     0.10200
C3229       C  0.41770886  0.78661289  0.84876736    -0.03600
C3230       C  0.42602157  0.79111226  0.83909594    -0.09400
C3231       C  0.43469262  0.80111263  0.84171071    -0.17000
C3232       C  0.43509417  0.80675566  0.85398368     0.25100
C3233       C  0.42667587  0.80245024  0.86355509    -0.18700
C3234       C  0.41805964  0.79247964  0.86098235    -0.07600
C3235       C  0.44436793  0.81663098  0.85705755    -0.14000
C3236       C  0.45205882  0.82448173  0.86084781    -0.13800
C3237       C  0.46113722  0.83310938  0.86687012     0.25000
C3238       C  0.46565305  0.83028626  0.87923937    -0.19200
C3239       C  0.47428011  0.83853371  0.88538268    -0.07600
C3240       C  0.47853769  0.84981379  0.87928194    -0.03700
C3241       C  0.47401945  0.85262979  0.86682191    -0.09000
C3242       C  0.46536273  0.84430149  0.86064374    -0.16700
H3243       H  0.42600994  0.78672526  0.82963311     0.11500
H3244       H  0.44119603  0.80431148  0.83422718     0.10800
H3245       H  0.42689645  0.80668184  0.87309982     0.10700
H3246       H  0.41180184  0.78922467  0.86863773     0.11200
H3247       H  0.46245676  0.82169017  0.88418601     0.11300
H3248       H  0.47756612  0.83610049  0.89497637     0.11200
H3249       H  0.47715891  0.86123387  0.86188871     0.11400
H3250       H  0.46194216  0.84660983  0.85106713     0.10200
C3251       C  0.41952323  0.72956484  0.86288333    -0.03600
C3252       C  0.41733296  0.72563800  0.87565301    -0.09400
C3253       C  0.42568325  0.71695154  0.88164072    -0.17000
C3254       C  0.43627740  0.71209584  0.87491786     0.25100
C3255       C  0.43855818  0.71605741  0.86223958    -0.18700
C3256       C  0.43026945  0.72475270  0.85626863    -0.07600
C3257       C  0.44480551  0.70295109  0.88084654    -0.14000
C3258       C  0.45246283  0.69520454  0.88479371    -0.13800
C3259       C  0.46223619  0.68597052  0.88803034     0.25000
C3260       C  0.46802804  0.67890769  0.87815897    -0.19200
C3261       C  0.47800295  0.67042498  0.88094199    -0.07600
C3262       C  0.48238667  0.66888133  0.89366462    -0.03700
C3263       C  0.47639160  0.67582292  0.90360849    -0.09000
C3264       C  0.46635044  0.68433965  0.90078920    -0.16700
H3265       H  0.40915608  0.72924475  0.88097976     0.11500
H3266       H  0.42383850  0.71397063  0.89146745     0.10800
H3267       H  0.44671711  0.71236818  0.85693521     0.10700
H3268       H  0.43220102  0.72760547  0.84642820     0.11200
H3269       H  0.46496315  0.68010578  0.86825467     0.11300
H3270       H  0.48243778  0.66523275  0.87307108     0.11200
H3271       H  0.47959050  0.67482145  0.91347991     0.11400
H3272       H  0.46194175  0.68978072  0.90851086     0.10200
C3273       C  0.28788263  0.82534595  0.87145429    -0.03600
C3274       C  0.29791805  0.82750832  0.86266489    -0.09400
C3275       C  0.30695223  0.81792861  0.86015164    -0.17000
C3276       C  0.30611335  0.80603662  0.86636447     0.25100
C3277       C  0.29598447  0.80366579  0.87492089    -0.18700
C3278       C  0.28688812  0.81326620  0.87744115    -0.07600
C3279       C  0.31596100  0.79656472  0.86416726    -0.14000
C3280       C  0.32490976  0.78958355  0.86183551    -0.13800
C3281       C  0.33623124  0.78238849  0.85844095     0.25000
C3282       C  0.34177179  0.77379120  0.86720105    -0.19200
C3283       C  0.35326075  0.76752369  0.86411687    -0.07600
C3284       C  0.35935258  0.76984539  0.85225267    -0.03700
C3285       C  0.35357210  0.77827848  0.84341625    -0.09000
C3286       C  0.34210507  0.78450833  0.84650427    -0.16700
H3287       H  0.29893304  0.83670382  0.85789828     0.11500
H3288       H  0.31473401  0.81988127  0.85351097     0.10800
H3289       H  0.29523650  0.79449298  0.87979240     0.10700
H3290       H  0.27927095  0.81135206  0.88426814     0.11200
H3291       H  0.33734066  0.77210615  0.87649038     0.11300
H3292       H  0.35750508  0.76107450  0.87110020     0.11200
H3293       H  0.35803327  0.78024202  0.83420245     0.11400
H3294       H  0.33793847  0.79116875  0.83966332     0.10200
C3295       C  0.16850864  0.89287782  0.96474354    -0.03600
C3296       C  0.18026761  0.89893092  0.96195940    -0.09400
C3297       C  0.18923655  0.89303615  0.95386756    -0.17000
C3298       C  0.18660671  0.88100789  0.94842090     0.25100
C3299       C  0.17482870  0.87501426  0.95095963    -0.18700
C3300       C  0.16582152  0.88091169  0.95906689    -0.07600
C3301       C  0.19596452  0.87497850  0.94011782    -0.14000
C3302       C  0.20401158  0.87076665  0.93286822    -0.13800
C3303       C  0.21377312  0.86727201  0.92363006     0.25000
C3304       C  0.21901924  0.85485708  0.92325170    -0.19200
C3305       C  0.22872279  0.85186360  0.91433594    -0.07600
C3306       C  0.23328069  0.86130182  0.90577854    -0.03700
C3307       C  0.22780964  0.87363815  0.90615848    -0.09000
C3308       C  0.21816129  0.87657898  0.91498884    -0.16700
H3309       H  0.18258851  0.90818503  0.96611971     0.11500
H3310       H  0.19825052  0.89784060  0.95191126     0.10800
H3311       H  0.17263231  0.86575189  0.94672164     0.10700
H3312       H  0.15682249  0.87606586  0.96099345     0.11200
H3313       H  0.21571161  0.84755575  0.92990017     0.11300
H3314       H  0.23280589  0.84230887  0.91429365     0.11200
H3315       H  0.23109922  0.88111507  0.89969714     0.11400
H3316       H  0.21419553  0.88620237  0.91515611     0.10200
C3317       C  0.16718450  0.90497457  0.02184555    -0.03600
C3318       C  0.16662028  0.89330028  0.02863326    -0.09400
C3319       C  0.17552424  0.89058661  0.03834102    -0.17000
C3320       C  0.18517949  0.89944800  0.04137522     0.25100
C3321       C  0.18571724  0.91118220  0.03477394    -0.18700
C3322       C  0.17673665  0.91396088  0.02510023    -0.07600
C3323       C  0.19468850  0.89620342  0.05097548    -0.14000
C3324       C  0.20244656  0.89249780  0.05880116    -0.13800
C3325       C  0.21143887  0.88689539  0.06778699     0.25000
C3326       C  0.21744887  0.87527623  0.06470112    -0.19200
C3327       C  0.22575185  0.86942868  0.07349901    -0.07600
C3328       C  0.22819624  0.87511011  0.08556189    -0.03700
C3329       C  0.22225157  0.88685908  0.08857085    -0.09000
C3330       C  0.21390473  0.89270667  0.07973259    -0.16700
H3331       H  0.15937727  0.88619377  0.02633397     0.11500
H3332       H  0.17499237  0.88147498  0.04335381     0.10800
H3333       H  0.19317212  0.91810540  0.03697744     0.10700
H3334       H  0.17746082  0.92297142  0.01994905     0.11200
H3335       H  0.21562484  0.87065862  0.05551879     0.11300
H3336       H  0.23021713  0.86041141  0.07087081     0.11200
H3337       H  0.22398750  0.89146842  0.09776859     0.11400
H3338       H  0.20930090  0.90168855  0.08225640     0.10200
C3339       C  0.40686491  0.90096425  0.98479441    -0.03600
C3340       C  0.41174259  0.88837279  0.98506899    -0.09400
C3341       C  0.42305964  0.88530896  0.97845878    -0.17000
C3342       C  0.42968892  0.89480612  0.97158745     0.25100
C3343       C  0.42500850  0.90741366  0.97149251    -0.18700
C3344       C  0.41366963  0.91047393  0.97802154    -0.07600
C3345       C  0.44093922  0.89157771  0.96413515    -0.14000
C3346       C  0.44993975  0.88928408  0.95715986    -0.13800
C3347       C  0.46002936  0.88710345  0.94787306     0.25000
C3348       C  0.45983473  0.89378769  0.93618517    -0.19200
C3349       C  0.46919086  0.89143982  0.92683713    -0.07600
C3350       C  0.47895353  0.88238156  0.92903254    -0.03700
C3351       C  0.47926199  0.87584579  0.94088920    -0.09000
C3352       C  0.46981866  0.87817524  0.95024571    -0.16700
H3353       H  0.40667781  0.88085180  0.99017506     0.11500
H3354       H  0.42653631  0.87550275  0.97856026     0.10800
H3355       H  0.43002299  0.91485041  0.96620136     0.10700
H3356       H  0.41016850  0.92025976  0.97768228     0.11200
H3357       H  0.45233192  0.90071708  0.93421795     0.11300
H3358       H  0.46869418  0.89662583  0.91780891     0.11200
H3359       H  0.48662212  0.86876735  0.94280801     0.11400
H3360       H  0.47006535  0.87291245  0.95924423     0.10200
C3361       C  0.34808191  0.90564233  0.97065088    -0.03600
C3362       C  0.34682319  0.89332778  0.96520804    -0.09400
C3363       C  0.33814323  0.89108092  0.95521294    -0.17000
C3364       C  0.33055517  0.90108021  0.95044788     0.25100
C3365       C  0.33176230  0.91343114  0.95573420    -0.18700
C3366       C  0.34049558  0.91571312  0.96579427    -0.07600
C3367       C  0.32145874  0.89834900  0.94031162    -0.14000
C3368       C  0.31417384  0.89444816  0.93213199    -0.13800
C3369       C  0.30585333  0.88807189  0.92301932     0.25000
C3370       C  0.30208522  0.89408636  0.91154094    -0.19200
C3371       C  0.29417459  0.88758823  0.90273486    -0.07600
C3372       C  0.28994533  0.87502198  0.90535449    -0.03700
C3373       C  0.29383490  0.86907429  0.91686742    -0.09000
C3374       C  0.30172564  0.87554402  0.92560328    -0.16700
H3375       H  0.35248180  0.88535785  0.96876012     0.11500
H3376       H  0.33728418  0.88148213  0.95125185     0.10800
H3377       H  0.32591045  0.92125060  0.95215695     0.10700
H3378       H  0.34122059  0.92527136  0.96984879     0.11200
H3379       H  0.30524734  0.90376684  0.90940632     0.11300
H3380       H  0.29127576  0.89241351  0.89396347     0.11200
H3381       H  0.29073637  0.85940984  0.91915791     0.11400
H3382       H  0.30461498  0.87075230  0.93440761     0.10200
C3383       C  0.34834543  0.88980260  0.02700626    -0.03600
C3384       C  0.35150135  0.87758625  0.03184807    -0.09400
C3385       C  0.34285125  0.87093406  0.03977430    -0.17000
C3386       C  0.33097564  0.87642660  0.04290400     0.25100
C3387       C  0.32776984  0.88852453  0.03801706    -0.18700
C3388       C  0.33636406  0.89515985  0.03013680    -0.07600
C3389       C  0.32219718  0.87010378  0.05157141    -0.14000
C3390       C  0.31431149  0.86638868  0.05923456    -0.13800
C3391       C  0.30448958  0.86401109  0.06872154     0.25000
C3392       C  0.29981305  0.87433389  0.07595895    -0.19200
C3393       C  0.28996272  0.87245507  0.08485953    -0.07600
C3394       C  0.28460853  0.86019529  0.08668552    -0.03700
C3395       C  0.28946465  0.84978069  0.07954906    -0.09000
C3396       C  0.29935610  0.85169662  0.07057915    -0.16700
H3397       H  0.36063632  0.87320418  0.02952819     0.11500
H3398       H  0.34545800  0.86159098  0.04353205     0.10800
H3399       H  0.31863783  0.89290373  0.04040220     0.10700
H3400       H  0.33363099  0.90451960  0.02651621     0.11200
H3401       H  0.30368522  0.88390114  0.07460698     0.11300
H3402       H  0.28642284  0.88066068  0.09020403     0.11200
H3403       H  0.28547554  0.84025201  0.08073645     0.11400
H3404       H  0.30288299  0.84362983  0.06500895     0.10200
C3405       C  0.11466207  0.99828519  0.89596948    -0.03600
C3406       C  0.12685255  0.99970356  0.90158805    -0.09400
C3407       C  0.12998471  0.99310108  0.91290581    -0.17000
C3408       C  0.12093285  0.98506159  0.91878079     0.25100
C3409       C  0.10866199  0.98386480  0.91342042    -0.18700
C3410       C  0.10552680  0.99042702  0.90209337    -0.07600
C3411       C  0.12446330  0.97740578  0.92979661    -0.14000
C3412       C  0.12727790  0.97010780  0.93837773    -0.13800
C3413       C  0.13018966  0.96025859  0.94768756     0.25000
C3414       C  0.13555913  0.96331070  0.95969845    -0.19200
C3415       C  0.13815486  0.95355602  0.96865161    -0.07600
C3416       C  0.13534065  0.94067389  0.96566329    -0.03700
C3417       C  0.13007277  0.93773501  0.95353939    -0.09000
C3418       C  0.12753315  0.94744351  0.94463771    -0.16700
H3419       H  0.13408566  0.00568676  0.89706019     0.11500
H3420       H  0.13951904  0.99405113  0.91691408     0.10800
H3421       H  0.10157928  0.97762466  0.91785083     0.10700
H3422       H  0.09606148  0.98917181  0.89800544     0.11200
H3423       H  0.13770376  0.97320308  0.96214881     0.11300
H3424       H  0.14229667  0.95607171  0.97788176     0.11200
H3425       H  0.12792026  0.92789412  0.95090407     0.11400
H3426       H  0.12344592  0.94494727  0.93536467     0.10200
C3427       C  0.02173132  0.11095203  0.89121328    -0.03600
C3428       C  0.01914239  0.10406507  0.87984269    -0.09400
C3429       C  0.02565477  0.09260270  0.87717306    -0.17000
C3430       C  0.03481870  0.08788635  0.88583236     0.25100
C3431       C  0.03739435  0.09465935  0.89720448    -0.18700
C3432       C  0.03090255  0.10610964  0.89988680    -0.07600
C3433       C  0.04202143  0.07644385  0.88283138    -0.14000
C3434       C  0.04885427  0.06740245  0.88038981    -0.13800
C3435       C  0.05808096  0.05746307  0.87761583     0.25000
C3436       C  0.07008839  0.05781600  0.88362844    -0.19200
C3437       C  0.07945286  0.04875813  0.88047266    -0.07600
C3438       C  0.07693960  0.03915826  0.87126609    -0.03700
C3439       C  0.06477651  0.03868654  0.86541696    -0.09000
C3440       C  0.05540236  0.04782331  0.86856205    -0.16700
H3441       H  0.01215281  0.10758482  0.87297672     0.11500
H3442       H  0.02363633  0.08749179  0.86830184     0.10800
H3443       H  0.04452093  0.09115819  0.90394269     0.10700
H3444       H  0.03312473  0.11121643  0.90870354     0.11200
H3445       H  0.07229345  0.06523482  0.89062018     0.11300
H3446       H  0.08872667  0.04936433  0.88514237     0.11200
H3447       H  0.06260918  0.03142841  0.85825687     0.11400
H3448       H  0.04615398  0.04748562  0.86380092     0.10200
C3449       C  0.15341762  0.86105833  0.73395781    -0.03600
C3450       C  0.14240543  0.85375418  0.73671315    -0.09400
C3451       C  0.13987385  0.84243817  0.72986235    -0.17000
C3452       C  0.14832057  0.83831234  0.72021775     0.25100
C3453       C  0.15938437  0.84545122  0.71755412    -0.18700
C3454       C  0.16193699  0.85673293  0.72439098    -0.07600
C3455       C  0.14546152  0.82704665  0.71268594    -0.14000
C3456       C  0.14320414  0.81805776  0.70570269    -0.13800
C3457       C  0.14061803  0.80801752  0.69650876     0.25000
C3458       C  0.13120514  0.79872437  0.69897850    -0.19200
C3459       C  0.12817773  0.78951644  0.68959949    -0.07600
C3460       C  0.13449064  0.78959177  0.67762885    -0.03700
C3461       C  0.14412699  0.79877981  0.67536732    -0.09000
C3462       C  0.14717224  0.80791133  0.68475032    -0.16700
H3463       H  0.13568715  0.85687070  0.74403218     0.11500
H3464       H  0.13125681  0.83700138  0.73197059     0.10800
H3465       H  0.16595791  0.84238514  0.71007742     0.10700
H3466       H  0.17048309  0.86217525  0.72204791     0.11200
H3467       H  0.12604956  0.79874410  0.70804182     0.11300
H3468       H  0.12069184  0.78257158  0.69157097     0.11200
H3469       H  0.14917283  0.79904540  0.66625095     0.11400
H3470       H  0.15446882  0.81505183  0.68273009     0.10200
C3471       C  0.18970064  0.88632419  0.77671708    -0.03600
C3472       C  0.18757834  0.87678919  0.78606929    -0.09400
C3473       C  0.19693575  0.87406245  0.79531043    -0.17000
C3474       C  0.20854207  0.88082692  0.79537195     0.25100
C3475       C  0.21082371  0.89023012  0.78598897    -0.18700
C3476       C  0.20146561  0.89294802  0.77667817    -0.07600
C3477       C  0.21790081  0.87819676  0.80526072    -0.14000
C3478       C  0.22507202  0.87553701  0.81399922    -0.13800
C3479       C  0.23283660  0.87185955  0.82489259     0.25000
C3480       C  0.23157627  0.85953083  0.83012437    -0.19200
C3481       C  0.23848767  0.85610495  0.84114789    -0.07600
C3482       C  0.24678049  0.86497199  0.84709173    -0.03700
C3483       C  0.24821785  0.87725126  0.84162906    -0.09000
C3484       C  0.24125286  0.88068053  0.83061131    -0.16700
H3485       H  0.17862146  0.87151674  0.78632622     0.11500
H3486       H  0.19505572  0.86676127  0.80250522     0.10800
H3487       H  0.21976841  0.89554362  0.78594773     0.10700
H3488       H  0.20332932  0.90036350  0.76961209     0.11200
H3489       H  0.22508557  0.85262542  0.82580190     0.11300
H3490       H  0.23720212  0.84657436  0.84512737     0.11200
H3491       H  0.25451477  0.88428223  0.84602493     0.11400
H3492       H  0.24228309  0.89026441  0.82667658     0.10200
C3493       C  0.13992954  0.91958075  0.77639288    -0.03600
C3494       C  0.12805752  0.91603736  0.78176717    -0.09400
C3495       C  0.12178478  0.92425819  0.79043742    -0.17000
C3496       C  0.12730006  0.93609639  0.79376481     0.25100
C3497       C  0.13898990  0.93974550  0.78824552    -0.18700
C3498       C  0.14525192  0.93157393  0.77963133    -0.07600
C3499       C  0.12136147  0.94444388  0.80312841    -0.14000
C3500       C  0.11773993  0.95210971  0.81107809    -0.13800
C3501       C  0.11508967  0.96195785  0.82050276     0.25000
C3502       C  0.12526008  0.96724685  0.82753329    -0.19200
C3503       C  0.12308136  0.97737438  0.83608871    -0.07600
C3504       C  0.11067393  0.98241908  0.83774233    -0.03700
C3505       C  0.10042103  0.97688505  0.83088203    -0.09000
C3506       C  0.10263113  0.96670648  0.82228914    -0.16700
H3507       H  0.12372522  0.90687529  0.77939997     0.11500
H3508       H  0.11273666  0.92132412  0.79464708     0.10800
H3509       H  0.14336192  0.94886663  0.79072979     0.10700
H3510       H  0.15435030  0.93460181  0.77560640     0.11200
H3511       H  0.13494069  0.96369249  0.82622817     0.11300
H3512       H  0.13117427  0.98141862  0.84123271     0.11200
H3513       H  0.09077444  0.98057747  0.83197469     0.11400
H3514       H  0.09467768  0.96270397  0.81688494     0.10200
C3515       C  0.07639682  0.97963738  0.62166365    -0.03600
C3516       C  0.06468862  0.98049935  0.62834132    -0.09400
C3517       C  0.05486559  0.97158547  0.62602251    -0.17000
C3518       C  0.05659372  0.96177212  0.61694245     0.25100
C3519       C  0.06811292  0.96106447  0.61003245    -0.18700
C3520       C  0.07795574  0.96990594  0.61238681    -0.07600
C3521       C  0.04685234  0.95208724  0.61500133    -0.14000
C3522       C  0.03955535  0.94328175  0.61298597    -0.13800
C3523       C  0.03213525  0.93200456  0.60977742     0.25000
C3524       C  0.03482483  0.92542958  0.59833928    -0.19200
C3525       C  0.02841591  0.91401883  0.59539413    -0.07600
C3526       C  0.01921006  0.90893508  0.60387071    -0.03700
C3527       C  0.01634375  0.91568058  0.61527372    -0.09000
C3528       C  0.02278413  0.92717347  0.61820658    -0.16700
H3529       H  0.06324923  0.98786511  0.63557409     0.11500
H3530       H  0.04601202  0.97222386  0.63145833     0.10800
H3531       H  0.06957879  0.95353008  0.60297430     0.10700
H3532       H  0.08685013  0.96902062  0.60707559     0.11200
H3533       H  0.04206962  0.92901991  0.59176515     0.11300
H3534       H  0.03084841  0.90904286  0.58655607     0.11200
H3535       H  0.00928176  0.91199726  0.62196687     0.11400
H3536       H  0.02063043  0.93215450  0.62711121     0.10200
C3537       C  0.12700132  0.97818675  0.65491950    -0.03600
C3538       C  0.12270711  0.97668674  0.66767137    -0.09400
C3539       C  0.12913596  0.96853494  0.67616369    -0.17000
C3540       C  0.13994606  0.96170687  0.67207648     0.25100
C3541       C  0.14434366  0.96312953  0.65938632    -0.18700
C3542       C  0.13792257  0.97136865  0.65084611    -0.07600
C3543       C  0.14607715  0.95297438  0.68093271    -0.14000
C3544       C  0.14973846  0.94558288  0.68910767    -0.13800
C3545       C  0.15219766  0.93660674  0.69939729     0.25000
C3546       C  0.14186832  0.93002134  0.70490679    -0.19200
C3547       C  0.14390042  0.92144725  0.71502860    -0.07600
C3548       C  0.15632029  0.91934134  0.71986976    -0.03700
C3549       C  0.16670752  0.92593999  0.71428906    -0.09000
C3550       C  0.16464496  0.93454242  0.70408930    -0.16700
H3551       H  0.11435185  0.98183423  0.67110845     0.11500
H3552       H  0.12560336  0.96748634  0.68592974     0.10800
H3553       H  0.15265991  0.95783651  0.65608405     0.10700
H3554       H  0.14142522  0.97233959  0.64107223     0.11200
H3555       H  0.13219015  0.93157686  0.70141982     0.11300
H3556       H  0.13569969  0.91656698  0.71916512     0.11200
H3557       H  0.17636034  0.92453175  0.71786822     0.11400
H3558       H  0.17271763  0.93962485  0.69993505     0.10200
C3559       C  0.13191131  0.22928855  0.81483131    -0.03600
C3560       C  0.13896016  0.21809631  0.81752019    -0.09400
C3561       C  0.14115646  0.20897306  0.80791274    -0.17000
C3562       C  0.13637402  0.21089086  0.79547203     0.25100
C3563       C  0.12954401  0.22212402  0.79261316    -0.18700
C3564       C  0.12731648  0.23129567  0.80225232    -0.07600
C3565       C  0.13836432  0.20113489  0.78583300    -0.14000
C3566       C  0.14051179  0.19234121  0.77857200    -0.13800
C3567       C  0.14376395  0.18130559  0.77086035     0.25000
C3568       C  0.13447092  0.17521621  0.76324405    -0.19200
C3569       C  0.13756703  0.16404020  0.75639266    -0.07600
C3570       C  0.14997634  0.15880419  0.75717804    -0.03700
C3571       C  0.15929430  0.16512205  0.76466080    -0.09000
C3572       C  0.15620128  0.17629212  0.77144795    -0.16700
H3573       H  0.14262127  0.21628843  0.82711253     0.11500
H3574       H  0.14647265  0.20033266  0.81023525     0.10800
H3575       H  0.12582528  0.22371835  0.78299803     0.10700
H3576       H  0.12186817  0.23984014  0.79992577     0.11200
H3577       H  0.12479282  0.17898160  0.76276636     0.11300
H3578       H  0.13020154  0.15934495  0.75072926     0.11200
H3579       H  0.16893572  0.16131985  0.76542756     0.11400
H3580       H  0.16345769  0.18089744  0.77733460     0.10200
C3581       C  0.15425848  0.10088369  0.77257700    -0.03600
C3582       C  0.16400368  0.09267819  0.77706176    -0.09400
C3583       C  0.16161920  0.08418900  0.78729698    -0.17000
C3584       C  0.14950832  0.08388703  0.79318467     0.25100
C3585       C  0.13988906  0.09221915  0.78890863    -0.18700
C3586       C  0.14222645  0.10063337  0.77870088    -0.07600
C3587       C  0.14657585  0.07475484  0.80323398    -0.14000
C3588       C  0.14275345  0.06720145  0.81120019    -0.13800
C3589       C  0.13679669  0.05826135  0.81999765     0.25000
C3590       C  0.14353081  0.05334753  0.83059839    -0.19200
C3591       C  0.13758728  0.04460854  0.83897820    -0.07600
C3592       C  0.12486217  0.04066008  0.83679996    -0.03700
C3593       C  0.11817947  0.04568537  0.82616731    -0.09000
C3594       C  0.12409620  0.05443284  0.81786617    -0.16700
H3595       H  0.17334228  0.09263944  0.77249624     0.11500
H3596       H  0.16913855  0.07775264  0.79048075     0.10800
H3597       H  0.13047518  0.09207149  0.79334485     0.10700
H3598       H  0.13453207  0.10684036  0.77548428     0.11200
H3599       H  0.15335992  0.05624122  0.83236737     0.11300
H3600       H  0.14295463  0.04087805  0.84709056     0.11200
H3601       H  0.10835544  0.04287305  0.82427297     0.11400
H3602       H  0.11875547  0.05819046  0.80973596     0.10200
C3603       C  0.14035485  0.09997479  0.71428105    -0.03600
C3604       C  0.14690793  0.08902773  0.70985036    -0.09400
C3605       C  0.14101009  0.08049181  0.70131813    -0.17000
C3606       C  0.12845804  0.08270982  0.69710242     0.25100
C3607       C  0.12183699  0.09361152  0.70142491    -0.18700
C3608       C  0.12776653  0.10222869  0.70995981    -0.07600
C3609       C  0.12259415  0.07375001  0.68827174    -0.14000
C3610       C  0.11891147  0.06568479  0.68075763    -0.13800
C3611       C  0.11609801  0.05559274  0.67165035     0.25000
C3612       C  0.10418506  0.04932551  0.67166977    -0.19200
C3613       C  0.10189164  0.03909135  0.66316717    -0.07600
C3614       C  0.11154156  0.03498720  0.65463840    -0.03700
C3615       C  0.12338519  0.04146194  0.65458493    -0.09000
C3616       C  0.12562645  0.05168410  0.66300978    -0.16700
H3617       H  0.15662124  0.08705549  0.71297582     0.11500
H3618       H  0.14625604  0.07212622  0.69801334     0.10800
H3619       H  0.11212010  0.09543936  0.69821606     0.10700
H3620       H  0.12249538  0.11057286  0.71324912     0.11200
H3621       H  0.09675004  0.05222790  0.67835598     0.11300
H3622       H  0.09270308  0.03423969  0.66343543     0.11200
H3623       H  0.13098735  0.03853914  0.64810705     0.11400
H3624       H  0.13488754  0.05642838  0.66291139     0.10200
C3625       C  0.61017634  0.61776082  0.98571538    -0.03600
C3626       C  0.60285014  0.62845275  0.98953627    -0.09400
C3627       C  0.59149612  0.63159580  0.98299284    -0.17000
C3628       C  0.58735347  0.62409949  0.97255763     0.25100
C3629       C  0.59455772  0.61339291  0.96879676    -0.18700
C3630       C  0.60586188  0.61023510  0.97531686    -0.07600
C3631       C  0.57601229  0.62751198  0.96532395    -0.14000
C3632       C  0.56704951  0.62981368  0.95829892    -0.13800
C3633       C  0.55712455  0.63195617  0.94882154     0.25000
C3634       C  0.55762688  0.62538015  0.93706247    -0.19200
C3635       C  0.54845133  0.62773492  0.92752741    -0.07600
C3636       C  0.53857435  0.63669442  0.92961634    -0.03700
C3637       C  0.53796130  0.64310932  0.94153576    -0.09000
C3638       C  0.54721346  0.64077481  0.95107151    -0.16700
H3639       H  0.60595162  0.63443075  0.99749571     0.11500
H3640       H  0.58603635  0.63993296  0.98598110     0.10800
H3641       H  0.59150435  0.60754554  0.96071273     0.10700
H3642       H  0.61131169  0.60197543  0.97211079     0.11200
H3643       H  0.56523747  0.61853944  0.93518554     0.11300
H3644       H  0.54918204  0.62265196  0.91845065     0.11200
H3645       H  0.53050582  0.65011301  0.94337302     0.11400
H3646       H  0.54672918  0.64595919  0.96011530     0.10200
C3647       C  0.63521062  0.57873937  0.02716677    -0.03600
C3648       C  0.62872694  0.58157873  0.03870537    -0.09400
C3649       C  0.62597970  0.57189918  0.04760011    -0.17000
C3650       C  0.62963639  0.55920778  0.04512926     0.25100
C3651       C  0.63594143  0.55622041  0.03357397    -0.18700
C3652       C  0.63872219  0.56593719  0.02462599    -0.07600
C3653       C  0.62705528  0.54944656  0.05466043    -0.14000
C3654       C  0.62457545  0.54212081  0.06333885    -0.13800
C3655       C  0.62121235  0.53433958  0.07434426     0.25000
C3656       C  0.63047784  0.52674534  0.08047023    -0.19200
C3657       C  0.62736059  0.51993577  0.09168523    -0.07600
C3658       C  0.61495287  0.52071629  0.09695612    -0.03700
C3659       C  0.60564282  0.52814555  0.09059247    -0.09000
C3660       C  0.60875926  0.53489846  0.07936994    -0.16700
H3661       H  0.62590230  0.59133750  0.04094775     0.11500
H3662       H  0.62109814  0.57434798  0.05648642     0.10800
H3663       H  0.63881156  0.54642509  0.03153971     0.10700
H3664       H  0.64371871  0.56347626  0.01582069     0.11200
H3665       H  0.64016442  0.52627501  0.07672008     0.11300
H3666       H  0.63473102  0.51431166  0.09639881     0.11200
H3667       H  0.59600492  0.52890977  0.09440905     0.11400
H3668       H  0.60151070  0.54076300  0.07475042     0.10200
C3669       C  0.77057027  0.65303083  0.84692167    -0.03600
C3670       C  0.76826745  0.64130301  0.84058854    -0.09400
C3671       C  0.77459892  0.63838896  0.82904425    -0.17000
C3672       C  0.78325242  0.64718172  0.82366829     0.25100
C3673       C  0.78532170  0.65901887  0.82974182    -0.18700
C3674       C  0.77902952  0.66193420  0.84128149    -0.07600
C3675       C  0.79065717  0.64381590  0.81242095    -0.14000
C3676       C  0.79781112  0.64126989  0.80363196    -0.13800
C3677       C  0.80743410  0.63866766  0.79399294     0.25000
C3678       C  0.81970249  0.64395030  0.79540697    -0.19200
C3679       C  0.82929617  0.64120919  0.78642350    -0.07600
C3680       C  0.82676496  0.63312687  0.77585894    -0.03700
C3681       C  0.81437326  0.62797264  0.77437552    -0.09000
C3682       C  0.80476306  0.63071442  0.78342057    -0.16700
H3683       H  0.76177753  0.63428059  0.84469490     0.11500
H3684       H  0.77294449  0.62917970  0.82445858     0.10800
H3685       H  0.79201190  0.66589182  0.82570076     0.10700
H3686       H  0.78095224  0.67106719  0.84590105     0.11200
H3687       H  0.82189878  0.65009984  0.80354670     0.11300
H3688       H  0.83874365  0.64531543  0.78782747     0.11200
H3689       H  0.81217795  0.62168726  0.76635234     0.11400
H3690       H  0.79530777  0.62654000  0.78223682     0.10200
C3691       C  0.65833912  0.74730992  0.85469788    -0.03600
C3692       C  0.66534843  0.75056407  0.86582354    -0.09400
C3693       C  0.67668796  0.74398258  0.86889275    -0.17000
C3694       C  0.68113779  0.73409212  0.86087685     0.25100
C3695       C  0.67420415  0.73086071  0.84978592    -0.18700
C3696       C  0.66291082  0.73740712  0.84670919    -0.07600
C3697       C  0.69258981  0.72694333  0.86404981    -0.14000
C3698       C  0.70170639  0.72005196  0.86606753    -0.13800
C3699       C  0.71179878  0.71072213  0.86793193     0.25000
C3700       C  0.72178506  0.71296116  0.87670908    -0.19200
C3701       C  0.73100926  0.70342568  0.87903873    -0.07600
C3702       C  0.73029836  0.69152111  0.87264925    -0.03700
C3703       C  0.72045896  0.68952084  0.86358543    -0.09000
C3704       C  0.71129965  0.69904423  0.86125233    -0.16700
H3705       H  0.66203564  0.75812967  0.87216388     0.11500
H3706       H  0.68192724  0.74655194  0.87753774     0.10800
H3707       H  0.67749381  0.72319508  0.84353132     0.10700
H3708       H  0.65770879  0.73465456  0.83810265     0.11200
H3709       H  0.72229827  0.72196267  0.88193530     0.11300
H3710       H  0.73847772  0.70522862  0.88606609     0.11200
H3711       H  0.71967620  0.68047659  0.85847957     0.11400
H3712       H  0.70365666  0.69718598  0.85441894     0.10200
C3713       C  0.72796675  0.64267642  0.90620691    -0.03600
C3714       C  0.72274937  0.63053100  0.90336072    -0.09400
C3715       C  0.71411099  0.62466885  0.91191332    -0.17000
C3716       C  0.71061366  0.63088888  0.92337638     0.25100
C3717       C  0.71580370  0.64295459  0.92624311    -0.18700
C3718       C  0.72440519  0.64879635  0.91775260    -0.07600
C3719       C  0.70161588  0.62513842  0.93223871    -0.14000
C3720       C  0.69407458  0.62151474  0.94029740    -0.13800
C3721       C  0.68511283  0.61872845  0.95052070     0.25000
C3722       C  0.67872369  0.62888450  0.95657528    -0.19200
C3723       C  0.67037806  0.62649765  0.96681184    -0.07600
C3724       C  0.66829631  0.61389283  0.97120919    -0.03700
C3725       C  0.67463354  0.60367927  0.96503079    -0.09000
C3726       C  0.68300369  0.60609967  0.95472120    -0.16700
H3727       H  0.72534699  0.62558396  0.89455574     0.11500
H3728       H  0.71015267  0.61532835  0.90958040     0.10800
H3729       H  0.71317491  0.64788202  0.93505836     0.10700
H3730       H  0.72826016  0.65814175  0.92023277     0.11200
H3731       H  0.68029385  0.63869437  0.95346288     0.11300
H3732       H  0.66566635  0.63456773  0.97139108     0.11200
H3733       H  0.67320351  0.59388819  0.96822724     0.11400
H3734       H  0.68791627  0.59815182  0.95012247     0.10200
C3735       C  0.88403469  0.57732294  0.96817993    -0.03600
C3736       C  0.89171807  0.58015653  0.95741118    -0.09400
C3737       C  0.89473567  0.57061607  0.94844386    -0.17000
C3738       C  0.89013239  0.55809439  0.95007793     0.25100
C3739       C  0.88261528  0.55511972  0.96087123    -0.18700
C3740       C  0.87958830  0.56468214  0.96989720    -0.07600
C3741       C  0.89284758  0.54853934  0.94038022    -0.14000
C3742       C  0.89528301  0.54141494  0.93152172    -0.13800
C3743       C  0.89839864  0.53399245  0.92020046     0.25000
C3744       C  0.88912831  0.52617166  0.91434009    -0.19200
C3745       C  0.89189252  0.51983774  0.90274448    -0.07600
C3746       C  0.90396044  0.52131031  0.89685750    -0.03700
C3747       C  0.91329487  0.52894192  0.90297101    -0.09000
C3748       C  0.91052630  0.53523586  0.91454730    -0.16700
H3749       H  0.89527635  0.58980271  0.95582039     0.11500
H3750       H  0.90053456  0.57305389  0.94013186     0.10800
H3751       H  0.87896765  0.54546251  0.96222573     0.10700
H3752       H  0.87362876  0.56224892  0.97808486     0.11200
H3753       H  0.87968623  0.52517746  0.91859002     0.11300
H3754       H  0.88452194  0.51402230  0.89825629     0.11200
H3755       H  0.92268069  0.53023797  0.89868277     0.11400
H3756       H  0.91776504  0.54129272  0.91894785     0.10200
C3757       C  0.84858297  0.62498061  0.96702005    -0.03600
C3758       C  0.85117428  0.63733116  0.96220801    -0.09400
C3759       C  0.84249943  0.64335885  0.95387003    -0.17000
C3760       C  0.83115041  0.63711648  0.95024615     0.25100
C3761       C  0.82852699  0.62479570  0.95498206    -0.18700
C3762       C  0.83716878  0.61876784  0.96332296    -0.07600
C3763       C  0.82224708  0.64314850  0.94149954    -0.14000
C3764       C  0.81441169  0.64715505  0.93393145    -0.13800
C3765       C  0.80460761  0.65019774  0.92461056     0.25000
C3766       C  0.79798755  0.64014135  0.91864129    -0.19200
C3767       C  0.78835281  0.64273257  0.90968396    -0.07600
C3768       C  0.78509975  0.65546274  0.90656036    -0.03700
C3769       C  0.79181657  0.66558191  0.91252815    -0.09000
C3770       C  0.80155346  0.66295115  0.92150780    -0.16700
H3771       H  0.85988273  0.64233313  0.96491450     0.11500
H3772       H  0.84465670  0.65287918  0.95023446     0.10800
H3773       H  0.81981316  0.61984059  0.95221315     0.10700
H3774       H  0.83491815  0.60924984  0.96686867     0.11200
H3775       H  0.80023177  0.63024430  0.92097210     0.11300
H3776       H  0.78331787  0.63472801  0.90532010     0.11200
H3777       H  0.78948913  0.67547360  0.91032331     0.11400
H3778       H  0.80661762  0.67082535  0.92606729     0.10200
C3779       C  0.74692360  0.65361914  0.14652368    -0.03600
C3780       C  0.73749362  0.66208690  0.15119082    -0.09400
C3781       C  0.73040211  0.65905414  0.16221700    -0.17000
C3782       C  0.73261873  0.64752447  0.16878208     0.25100
C3783       C  0.74212525  0.63910251  0.16431463    -0.18700
C3784       C  0.74925288  0.64213059  0.15325790    -0.07600
C3785       C  0.72482279  0.64426254  0.17982856    -0.14000
C3786       C  0.71766802  0.64190021  0.18869368    -0.13800
C3787       C  0.70836380  0.63941890  0.19872215     0.25000
C3788       C  0.71080253  0.63031650  0.20836990    -0.19200
C3789       C  0.70144877  0.62757291  0.21769999    -0.07600
C3790       C  0.68951603  0.63386695  0.21743900    -0.03700
C3791       C  0.68725706  0.64315376  0.20785833    -0.09000
C3792       C  0.69660786  0.64590873  0.19859893    -0.16700
H3793       H  0.73546940  0.67100053  0.14621482     0.11500
H3794       H  0.72307145  0.66564610  0.16553484     0.10800
H3795       H  0.74392473  0.63013199  0.16928215     0.10700
H3796       H  0.75643675  0.63542145  0.14987851     0.11200
H3797       H  0.71985596  0.62521240  0.20857449     0.11300
H3798       H  0.70343570  0.62034856  0.22493127     0.11200
H3799       H  0.67817721  0.64817854  0.20740910     0.11400
H3800       H  0.69458383  0.65297885  0.19121578     0.10200
C3801       C  0.66976868  0.62812088  0.02758463    -0.03600
C3802       C  0.68106290  0.62189442  0.03155766    -0.09400
C3803       C  0.68972807  0.62803133  0.03979177    -0.17000
C3804       C  0.68731440  0.64051430  0.04416979     0.25100
C3805       C  0.67613616  0.64687055  0.04018127    -0.18700
C3806       C  0.66739379  0.64070234  0.03193696    -0.07600
C3807       C  0.69624483  0.64646446  0.05301090    -0.14000
C3808       C  0.70420970  0.65010227  0.06067034    -0.13800
C3809       C  0.71409471  0.65282732  0.07005899     0.25000
C3810       C  0.71992506  0.66495631  0.07074321    -0.19200
C3811       C  0.72984697  0.66723702  0.07960960    -0.07600
C3812       C  0.73408122  0.65737689  0.08783815    -0.03700
C3813       C  0.72807383  0.64529209  0.08715911    -0.09000
C3814       C  0.71816525  0.64305405  0.07835946    -0.16700
H3815       H  0.68316948  0.61221307  0.02837163     0.11500
H3816       H  0.69830624  0.62298115  0.04282202     0.10800
H3817       H  0.67414007  0.65653221  0.04349864     0.10700
H3818       H  0.65880508  0.64574753  0.02897776     0.11200
H3819       H  0.71690518  0.67259686  0.06434419     0.11300
H3820       H  0.73434161  0.67661296  0.07988112     0.11200
H3821       H  0.73111636  0.63750521  0.09336080     0.11400
H3822       H  0.71376978  0.63362644  0.07792874     0.10200
C3823       C  0.79015852  0.64265077  0.08786953    -0.03600
C3824       C  0.79624973  0.63114118  0.09142421    -0.09400
C3825       C  0.80429942  0.62475664  0.08269733    -0.17000
C3826       C  0.80627793  0.62978139  0.07033065     0.25100
C3827       C  0.80014533  0.64117340  0.06671786    -0.18700
C3828       C  0.79216220  0.64757111  0.07541122    -0.07600
C3829       C  0.81497393  0.62367654  0.06143222    -0.14000
C3830       C  0.82254985  0.61983461  0.05352390    -0.13800
C3831       C  0.83188928  0.61696015  0.04369360     0.25000
C3832       C  0.83897951  0.62701814  0.03830423    -0.19200
C3833       C  0.84784564  0.62457196  0.02853636    -0.07600
C3834       C  0.84975362  0.61199961  0.02395252    -0.03700
C3835       C  0.84270587  0.60188043  0.02948123    -0.09000
C3836       C  0.83380745  0.60435922  0.03931798    -0.16700
H3837       H  0.79484916  0.62713426  0.10094851     0.11500
H3838       H  0.80904443  0.61597204  0.08562127     0.10800
H3839       H  0.80162324  0.64518209  0.05720074     0.10700
H3840       H  0.78755213  0.65637992  0.07236922     0.11200
H3841       H  0.83756550  0.63680655  0.04157682     0.11300
H3842       H  0.85307907  0.63257633  0.02443850     0.11200
H3843       H  0.84395119  0.59211994  0.02609407     0.11400
H3844       H  0.82835496  0.59649414  0.04340770     0.10200
C3845       C  0.15906310  0.24869788  0.35319550    -0.03600
C3846       C  0.16469618  0.24990940  0.36544268    -0.09400
C3847       C  0.17573520  0.24291362  0.36853916    -0.17000
C3848       C  0.18130033  0.23473301  0.35939960     0.25100
C3849       C  0.17594354  0.23376722  0.34707074    -0.18700
C3850       C  0.16488528  0.24068985  0.34398350    -0.07600
C3851       C  0.19203325  0.22674554  0.36283022    -0.14000
C3852       C  0.20048414  0.21928089  0.36543007    -0.13800
C3853       C  0.20989850  0.20953316  0.36810856     0.25000
C3854       C  0.20792089  0.19702735  0.36357586    -0.19200
C3855       C  0.21692381  0.18743632  0.36613705    -0.07600
C3856       C  0.22805396  0.19022904  0.37327344    -0.03700
C3857       C  0.22998681  0.20281044  0.37782163    -0.09000
C3858       C  0.22094143  0.21241676  0.37524522    -0.16700
H3859       H  0.16036605  0.25596901  0.37272729     0.11500
H3860       H  0.17976851  0.24367843  0.37813477     0.10800
H3861       H  0.18015064  0.22744528  0.33993223     0.10700
H3862       H  0.16076124  0.23960041  0.33446573     0.11200
H3863       H  0.19939737  0.19467882  0.35807668     0.11300
H3864       H  0.21514666  0.17782188  0.36256491     0.11200
H3865       H  0.23844265  0.20519861  0.38339993     0.11400
H3866       H  0.22254399  0.22206479  0.37883269     0.10200
C3867       C  0.10974892  0.11684458  0.48391087    -0.03600
C3868       C  0.10192135  0.12701163  0.48814713    -0.09400
C3869       C  0.09034399  0.12975095  0.48181118    -0.17000
C3870       C  0.08648594  0.12236935  0.47118228     0.25100
C3871       C  0.09420673  0.11219473  0.46700496    -0.18700
C3872       C  0.10572170  0.10943546  0.47331674    -0.07600
C3873       C  0.07491155  0.12538375  0.46415070    -0.14000
C3874       C  0.06584899  0.12741401  0.45717262    -0.13800
C3875       C  0.05599376  0.12940482  0.44759270     0.25000
C3876       C  0.05731323  0.12371886  0.43544064    -0.19200
C3877       C  0.04834441  0.12618185  0.42574164    -0.07600
C3878       C  0.03787969  0.13439062  0.42804096    -0.03700
C3879       C  0.03639145  0.13981034  0.44037211    -0.09000
C3880       C  0.04542229  0.13734575  0.45008876    -0.16700
H3881       H  0.10477588  0.13286011  0.49629250     0.11500
H3882       H  0.08447732  0.13768209  0.48512136     0.10800
H3883       H  0.09138069  0.10644847  0.45876606     0.10700
H3884       H  0.11154328  0.10156044  0.46981189     0.11200
H3885       H  0.06543530  0.11755495  0.43337425     0.11300
H3886       H  0.04974426  0.12185106  0.41635903     0.11200
H3887       H  0.02843237  0.14617433  0.44240502     0.11400
H3888       H  0.04428476  0.14181233  0.45945246     0.10200
C3889       C  0.13461053  0.07829003  0.52547036    -0.03600
C3890       C  0.14069339  0.06625544  0.52471107    -0.09400
C3891       C  0.13837709  0.05685544  0.53409979    -0.17000
C3892       C  0.12993260  0.05937892  0.54429935     0.25100
C3893       C  0.12360211  0.07121200  0.54489613    -0.18700
C3894       C  0.12591200  0.08059719  0.53556402    -0.07600
C3895       C  0.12792464  0.05009122  0.55440952    -0.14000
C3896       C  0.12572148  0.04309681  0.56342180    -0.13800
C3897       C  0.12237920  0.03558293  0.57460426     0.25000
C3898       C  0.11082348  0.03800338  0.58102810    -0.19200
C3899       C  0.10758761  0.03102586  0.59206563    -0.07600
C3900       C  0.11588960  0.02151788  0.59686062    -0.03700
C3901       C  0.12745389  0.01907249  0.59032425    -0.09000
C3902       C  0.13067953  0.02607693  0.57926087    -0.16700
H3903       H  0.14744877  0.06423016  0.51705128     0.11500
H3904       H  0.14332196  0.04772115  0.53352009     0.10800
H3905       H  0.11702835  0.07327402  0.55271548     0.10700
H3906       H  0.12107325  0.08976192  0.53639849     0.11200
H3907       H  0.10434380  0.04536492  0.57755558     0.11300
H3908       H  0.09864546  0.03316314  0.59691878     0.11200
H3909       H  0.13405101  0.01184353  0.59383498     0.11400
H3910       H  0.13967509  0.02414602  0.57440446     0.10200
C3911       C  0.16922456  0.11214174  0.47026475    -0.03600
C3912       C  0.17283406  0.10180674  0.46231082    -0.09400
C3913       C  0.18167311  0.10368451  0.45227737    -0.17000
C3914       C  0.18702243  0.11587241  0.45018830     0.25100
C3915       C  0.18341765  0.12615787  0.45806826    -0.18700
C3916       C  0.17457122  0.12433144  0.46798581    -0.07600
C3917       C  0.19618813  0.11811753  0.44002764    -0.14000
C3918       C  0.20376919  0.12175459  0.43202460    -0.13800
C3919       C  0.21244593  0.12801715  0.42321544     0.25000
C3920       C  0.21532142  0.14101862  0.42506735    -0.19200
C3921       C  0.22347682  0.14740944  0.41654964    -0.07600
C3922       C  0.22885495  0.14090303  0.40598259    -0.03700
C3923       C  0.22596421  0.12783097  0.40414266    -0.09000
C3924       C  0.21781186  0.12140742  0.41275132    -0.16700
H3925       H  0.16882516  0.09233597  0.46383714     0.11500
H3926       H  0.18435427  0.09565377  0.44620361     0.10800
H3927       H  0.18748008  0.13562498  0.45656037     0.10700
H3928       H  0.17202452  0.13246185  0.47397904     0.11200
H3929       H  0.21120613  0.14625206  0.43309779     0.11300
H3930       H  0.22551235  0.15748071  0.41819825     0.11200
H3931       H  0.23004055  0.12258952  0.39611122     0.11400
H3932       H  0.21565923  0.11133759  0.41122056     0.10200
C3933       C  0.24688234  0.15463698  0.64705450    -0.03600
C3934       C  0.24828346  0.14255477  0.65294023    -0.09400
C3935       C  0.24169989  0.13969939  0.66436051    -0.17000
C3936       C  0.23372071  0.14891255  0.67007798     0.25100
C3937       C  0.23263679  0.16110401  0.66449618    -0.18700
C3938       C  0.23915927  0.16395458  0.65306903    -0.07600
C3939       C  0.22595168  0.14566006  0.68112484    -0.14000
C3940       C  0.21856330  0.14315939  0.68974101    -0.13800
C3941       C  0.20878876  0.14045475  0.69921995     0.25000
C3942       C  0.19686042  0.14655854  0.69832155    -0.19200
C3943       C  0.18706246  0.14356838  0.70701806    -0.07600
C3944       C  0.18905907  0.13443536  0.71679343    -0.03700
C3945       C  0.20113708  0.12850725  0.71781277    -0.09000
C3946       C  0.21093341  0.13147510  0.70904346    -0.16700
H3947       H  0.25418734  0.13520756  0.64853608     0.11500
H3948       H  0.24259852  0.13021769  0.66855810     0.10800
H3949       H  0.22649268  0.16831718  0.66880709     0.10700
H3950       H  0.23796093  0.17336830  0.64880879     0.11200
H3951       H  0.19506542  0.15351502  0.69076989     0.11300
H3952       H  0.17787585  0.14830829  0.70600559     0.11200
H3953       H  0.20292182  0.12140720  0.72521984     0.11400
H3954       H  0.22010683  0.12665206  0.70982386     0.10200
C3955       C  0.16876251  0.12697020  0.52668008    -0.03600
C3956       C  0.17902925  0.12011308  0.53214679    -0.09400
C3957       C  0.18777897  0.12625393  0.54028213    -0.17000
C3958       C  0.18644701  0.13933973  0.54306351     0.25100
C3959       C  0.17627191  0.14627733  0.53764093    -0.18700
C3960       C  0.16745735  0.14012108  0.52949600    -0.07600
C3961       C  0.19544109  0.14540454  0.55171141    -0.14000
C3962       C  0.20332752  0.14921361  0.55934063    -0.13800
C3963       C  0.21304864  0.15209004  0.56880985     0.25000
C3964       C  0.21724160  0.16471795  0.57092933    -0.19200
C3965       C  0.22691390  0.16722335  0.58000207    -0.07600
C3966       C  0.23245402  0.15710645  0.58704636    -0.03700
C3967       C  0.22807156  0.14449923  0.58492207    -0.09000
C3968       C  0.21846870  0.14202407  0.57587194    -0.16700
H3969       H  0.18030053  0.10998527  0.53014245     0.11500
H3970       H  0.19558571  0.12076936  0.54443826     0.10800
H3971       H  0.17513668  0.15641063  0.53972779     0.10700
H3972       H  0.15968159  0.14564438  0.52534928     0.11200
H3973       H  0.21311918  0.17259393  0.56551325     0.11300
H3974       H  0.23013796  0.17701293  0.58141648     0.11200
H3975       H  0.23218704  0.13649655  0.59014384     0.11400
H3976       H  0.21533282  0.13221812  0.57431144     0.10200
C3977       C  0.34850630  0.11391121  0.52260069    -0.03600
C3978       C  0.34524871  0.12665829  0.52569225    -0.09400
C3979       C  0.33647406  0.12930647  0.53548829    -0.17000
C3980       C  0.33082385  0.11928483  0.54242896     0.25100
C3981       C  0.33412262  0.10653127  0.53957319    -0.18700
C3982       C  0.34292204  0.10384224  0.52968534    -0.07600
C3983       C  0.32162565  0.12232058  0.55236792    -0.14000
C3984       C  0.31415195  0.12617754  0.56038194    -0.13800
C3985       C  0.30560029  0.13212594  0.56955187     0.25000
C3986       C  0.30044647  0.12509769  0.57984307    -0.19200
C3987       C  0.29231565  0.13109282  0.58878187    -0.07600
C3988       C  0.28920748  0.14416777  0.58745787    -0.03700
C3989       C  0.29445506  0.15113265  0.57711320    -0.09000
C3990       C  0.30259514  0.14516116  0.56825519    -0.16700
H3991       H  0.34935934  0.13462844  0.52040734     0.11500
H3992       H  0.33402602  0.13920458  0.53759226     0.10800
H3993       H  0.32983327  0.09868498  0.54490860     0.10700
H3994       H  0.34526772  0.09394464  0.52751489     0.11200
H3995       H  0.30270581  0.11500263  0.58095413     0.11300
H3996       H  0.28834859  0.12549034  0.59661652     0.11200
H3997       H  0.29225027  0.16121890  0.57584864     0.11400
H3998       H  0.30654521  0.15072518  0.56037519     0.10200
C3999       C  0.34860936  0.12720331  0.46570125    -0.03600
C4000       C  0.33680502  0.12155029  0.46239822    -0.09400
C4001       C  0.32834095  0.12781198  0.45408433    -0.17000
C4002       C  0.33151974  0.13982121  0.44894324     0.25100
C4003       C  0.34324660  0.14556888  0.45219719    -0.18700
C4004       C  0.35175640  0.13930039  0.46055682    -0.07600
C4005       C  0.32276717  0.14592013  0.44010222    -0.14000
C4006       C  0.31484179  0.14965605  0.43249569    -0.13800
C4007       C  0.30488263  0.15226283  0.42321827     0.25000
C4008       C  0.30039996  0.16478180  0.42109635    -0.19200
C4009       C  0.29041373  0.16697631  0.41229706    -0.07600
C4010       C  0.28484972  0.15665268  0.40555236    -0.03700
C4011       C  0.28953366  0.14416711  0.40766420    -0.09000
C4012       C  0.29944102  0.14200352  0.41643636    -0.16700
H4013       H  0.33409915  0.11226378  0.46624030     0.11500
H4014       H  0.31932229  0.12324839  0.45161650     0.10800
H4015       H  0.34582971  0.15484797  0.44824533     0.10700
H4016       H  0.36076813  0.14388134  0.46297507     0.11200
H4017       H  0.30452477  0.17280252  0.42631405     0.11300
H4018       H  0.28696143  0.17667959  0.41087358     0.11200
H4019       H  0.28541073  0.13601350  0.40266557     0.11400
H4020       H  0.30278533  0.13227389  0.41802134     0.10200
C4021       C  0.38292434  0.07811310  0.46733856    -0.03600
C4022       C  0.37715000  0.06592444  0.46816951    -0.09400
C4023       C  0.38006698  0.05634687  0.45911034    -0.17000
C4024       C  0.38879817  0.05883521  0.44914169     0.25100
C4025       C  0.39475925  0.07086722  0.44843104    -0.18700
C4026       C  0.39185650  0.08042738  0.45744190    -0.07600
C4027       C  0.39134349  0.04933610  0.43930496    -0.14000
C4028       C  0.39367441  0.04216533  0.43043573    -0.13800
C4029       C  0.39679366  0.03452559  0.41923164     0.25000
C4030       C  0.40920856  0.03496300  0.41410429    -0.19200
C4031       C  0.41212239  0.02829843  0.40276540    -0.07600
C4032       C  0.40265805  0.02106134  0.39636901    -0.03700
C4033       C  0.39026013  0.02045488  0.40169167    -0.09000
C4034       C  0.38734536  0.02717634  0.41303835    -0.16700
H4035       H  0.37022126  0.06387945  0.47566911     0.11500
H4036       H  0.37536967  0.04708133  0.45976571     0.10800
H4037       H  0.40151592  0.07293813  0.44077357     0.10700
H4038       H  0.39646081  0.08971030  0.45653300     0.11200
H4039       H  0.41659761  0.04064239  0.41875525     0.11300
H4040       H  0.42175482  0.02895257  0.39890551     0.11200
H4041       H  0.38276730  0.01500197  0.39695245     0.11400
H4042       H  0.37768133  0.02680748  0.41685823     0.10200
C4043       C  0.32839040  0.88389306  0.21663361    -0.03600
C4044       C  0.31616805  0.88945252  0.21801508    -0.09400
C4045       C  0.30662148  0.88736344  0.20870054    -0.17000
C4046       C  0.30914478  0.87965344  0.19791168     0.25100
C4047       C  0.32118583  0.87381104  0.19667213    -0.18700
C4048       C  0.33072809  0.87590268  0.20594282    -0.07600
C4049       C  0.29959434  0.87788599  0.18792436    -0.14000
C4050       C  0.29233111  0.87589533  0.17903101    -0.13800
C4051       C  0.28467750  0.87257894  0.16786354     0.25000
C4052       C  0.27529798  0.88097020  0.16304728    -0.19200
C4053       C  0.26841897  0.87779009  0.15183700    -0.07600
C4054       C  0.27085181  0.86617672  0.14532215    -0.03700
C4055       C  0.28013298  0.85776164  0.15036044    -0.09000
C4056       C  0.28697785  0.86094913  0.16150294    -0.16700
H4057       H  0.31408599  0.89564832  0.22613752     0.11500
H4058       H  0.29734539  0.89192104  0.20981698     0.10800
H4059       H  0.32327611  0.86778917  0.18841877     0.10700
H4060       H  0.34002236  0.87145839  0.20460796     0.11200
H4061       H  0.27341287  0.89001310  0.16784966     0.11300
H4062       H  0.26132731  0.88445725  0.14819018     0.11200
H4063       H  0.28225023  0.84876072  0.14557451     0.11400
H4064       H  0.29421149  0.85437669  0.16507916     0.10200
C4065       C  0.36377164  0.91726468  0.27274122    -0.03600
C4066       C  0.35447856  0.92628475  0.27655596    -0.09400
C4067       C  0.35721395  0.93523445  0.28629934    -0.17000
C4068       C  0.36922303  0.93521209  0.29239377     0.25100
C4069       C  0.37838209  0.92603633  0.28885497    -0.18700
C4070       C  0.37569275  0.91714363  0.27910935    -0.07600
C4071       C  0.37242883  0.94483048  0.30192393    -0.14000
C4072       C  0.37598839  0.95282217  0.30960232    -0.13800
C4073       C  0.38131266  0.96220454  0.31837968     0.25000
C4074       C  0.39276290  0.96847012  0.31519170    -0.19200
C4075       C  0.39837817  0.97711621  0.32382757    -0.07600
C4076       C  0.39264401  0.97962445  0.33583701    -0.03700
C4077       C  0.38101716  0.97349059  0.33891507    -0.09000
C4078       C  0.37539156  0.96481784  0.33022786    -0.16700
H4079       H  0.34524240  0.92663020  0.27178972     0.11500
H4080       H  0.35004552  0.94229941  0.28892477     0.10800
H4081       H  0.38770284  0.92589409  0.29347507     0.10700
H4082       H  0.38303624  0.91030145  0.27640963     0.11200
H4083       H  0.39745341  0.96655060  0.30607214     0.11300
H4084       H  0.40730815  0.98172079  0.32115874     0.11200
H4085       H  0.37636992  0.97528138  0.34807022     0.11400
H4086       H  0.36652133  0.96004165  0.33281598     0.10200
C4087       C  0.40197919  0.99644228  0.09789433    -0.03600
C4088       C  0.41101709  0.98816492  0.09220515    -0.09400
C4089       C  0.40804242  0.98143020  0.08092085    -0.17000
C4090       C  0.39600408  0.98285371  0.07511098     0.25100
C4091       C  0.38696135  0.99115622  0.08065239    -0.18700
C4092       C  0.38992914  0.99792394  0.09196924    -0.07600
C4093       C  0.39289465  0.97542625  0.06374407    -0.14000
C4094       C  0.39071826  0.96846277  0.05465918    -0.13800
C4095       C  0.38845988  0.95913529  0.04457044     0.25000
C4096       C  0.37984448  0.96167195  0.03450603    -0.19200
C4097       C  0.37707541  0.95215650  0.02531741    -0.07600
C4098       C  0.38285060  0.93997011  0.02614354    -0.03700
C4099       C  0.39177040  0.93766695  0.03604787    -0.09000
C4100       C  0.39454532  0.94716893  0.04516709    -0.16700
H4101       H  0.42036051  0.98678916  0.09655152     0.11500
H4102       H  0.41510882  0.97499970  0.07679214     0.10800
H4103       H  0.37758366  0.99230441  0.07630319     0.10700
H4104       H  0.38276518  0.00419357  0.09615510     0.11200
H4105       H  0.37507706  0.97089679  0.03390843     0.11300
H4106       H  0.37018638  0.95420982  0.01778685     0.11200
H4107       H  0.39642658  0.92840919  0.03690841     0.11400
H4108       H  0.40125237  0.94507503  0.05286523     0.10200
C4109       C  0.44053240  0.03868101  0.12293122    -0.03600
C4110       C  0.45303263  0.03692917  0.12772638    -0.09400
C4111       C  0.46266006  0.04597482  0.12510018    -0.17000
C4112       C  0.45990142  0.05685629  0.11765682     0.25100
C4113       C  0.44750780  0.05857598  0.11275928    -0.18700
C4114       C  0.43789689  0.04957079  0.11536595    -0.07600
C4115       C  0.46958942  0.06647146  0.11521303    -0.14000
C4116       C  0.47690549  0.07517491  0.11287744    -0.13800
C4117       C  0.48457741  0.08627543  0.10967291     0.25000
C4118       C  0.48354443  0.09175521  0.09740651    -0.19200
C4119       C  0.49007977  0.10312406  0.09450069    -0.07600
C4120       C  0.49776986  0.10919915  0.10382943    -0.03700
C4121       C  0.49903932  0.10348039  0.11604293    -0.09000
C4122       C  0.49245050  0.09209418  0.11895028    -0.16700
H4123       H  0.45531988  0.02865878  0.13361503     0.11500
H4124       H  0.47220977  0.04454248  0.12897020     0.10800
H4125       H  0.44523269  0.06695791  0.10701326     0.10700
H4126       H  0.42836016  0.05121195  0.11157453     0.11200
H4127       H  0.47746086  0.08738168  0.09015484     0.11300
H4128       H  0.48893429  0.10728204  0.08500741     0.11200
H4129       H  0.50488561  0.10795110  0.12341853     0.11400
H4130       H  0.49329237  0.08798133  0.12849656     0.10200
C4131       C  0.37795922  0.91762828  0.21600848    -0.03600
C4132       C  0.37370719  0.93039057  0.21481223    -0.09400
C4133       C  0.37989635  0.93890792  0.20648581    -0.17000
C4134       C  0.39040885  0.93483149  0.19917647     0.25100
C4135       C  0.39478061  0.92214622  0.20033663    -0.18700
C4136       C  0.38861173  0.91358819  0.20874947    -0.07600
C4137       C  0.39625623  0.94366658  0.19021168    -0.14000
C4138       C  0.39980258  0.95175884  0.18266693    -0.13800
C4139       C  0.40226449  0.96200271  0.17363034     0.25000
C4140       C  0.41478660  0.96619822  0.17102282    -0.19200
C4141       C  0.41687768  0.97642367  0.16246139    -0.07600
C4142       C  0.40644519  0.98253713  0.15643716    -0.03700
C4143       C  0.39394394  0.97817674  0.15906496    -0.09000
C4144       C  0.39188438  0.96801606  0.16759125    -0.16700
H4145       H  0.36556377  0.93380264  0.22030964     0.11500
H4146       H  0.37639074  0.94867670  0.20566043     0.10800
H4147       H  0.40286816  0.91885238  0.19468168     0.10700
H4148       H  0.39207165  0.90380603  0.20947726     0.11200
H4149       H  0.42290695  0.96164262  0.17566520     0.11300
H4150       H  0.42659854  0.97960366  0.16063350     0.11200
H4151       H  0.38570877  0.98270615  0.15461607     0.11400
H4152       H  0.38215627  0.96490640  0.16955077     0.10200
C4153       C  0.38438635  0.23023993  0.17805480    -0.03600
C4154       C  0.38985998  0.23168168  0.19035881    -0.09400
C4155       C  0.38741906  0.22261361  0.20002822    -0.17000
C4156       C  0.37945993  0.21205294  0.19751096     0.25100
C4157       C  0.37382100  0.21069265  0.18534467    -0.18700
C4158       C  0.37626337  0.21970707  0.17568319    -0.07600
C4159       C  0.37727911  0.20236388  0.20718777    -0.14000
C4160       C  0.37509845  0.19359494  0.21447363    -0.13800
C4161       C  0.37188843  0.18242584  0.22202395     0.25000
C4162       C  0.38038942  0.17764194  0.23132413    -0.19200
C4163       C  0.37747842  0.16627458  0.23796223    -0.07600
C4164       C  0.36603236  0.15959293  0.23533212    -0.03700
C4165       C  0.35748030  0.16461652  0.22615546    -0.09000
C4166       C  0.36039866  0.17592608  0.21955330    -0.16700
H4167       H  0.39618791  0.23967778  0.19242829     0.11500
H4168       H  0.39185768  0.22375477  0.20940587     0.10800
H4169       H  0.36765482  0.20256391  0.18326978     0.10700
H4170       H  0.37192119  0.21833831  0.16630155     0.11200
H4171       H  0.38933605  0.18257075  0.23329068     0.11300
H4172       H  0.38423548  0.16262224  0.24498391     0.11200
H4173       H  0.34859916  0.15968311  0.22391268     0.11400
H4174       H  0.35377100  0.17949168  0.21234767     0.10200
C4175       C  0.32721193  0.13459692  0.27579862    -0.03600
C4176       C  0.32952790  0.14313216  0.28605106    -0.09400
C4177       C  0.31999611  0.14566180  0.29514882    -0.17000
C4178       C  0.30799810  0.13971823  0.29414993     0.25100
C4179       C  0.30548648  0.13140117  0.28382320    -0.18700
C4180       C  0.31504300  0.12886044  0.27466367    -0.07600
C4181       C  0.29851023  0.14197853  0.30398696    -0.14000
C4182       C  0.29134577  0.14427367  0.31282413    -0.13800
C4183       C  0.28369348  0.14750334  0.32392258     0.25000
C4184       C  0.27485227  0.13869044  0.32894432    -0.19200
C4185       C  0.26800391  0.14163459  0.34017222    -0.07600
C4186       C  0.26997734  0.15341220  0.34651980    -0.03700
C4187       C  0.27868489  0.16229988  0.34126216    -0.09000
C4188       C  0.28549906  0.15934994  0.33004999    -0.16700
H4189       H  0.33880142  0.14769964  0.28717740     0.11500
H4190       H  0.32205560  0.15211506  0.30308239     0.10800
H4191       H  0.29622334  0.12674368  0.28295850     0.10700
H4192       H  0.31301719  0.12222743  0.26688106     0.11200
H4193       H  0.27340785  0.12947261  0.32430843     0.11300
H4194       H  0.26137606  0.13460405  0.34403104     0.11200
H4195       H  0.28040991  0.17143963  0.34594816     0.11400
H4196       H  0.29234145  0.16622908  0.32627950     0.10200
C4197       C  0.36351000  0.10154242  0.22032389    -0.03600
C4198       C  0.37614435  0.10023552  0.21575041    -0.09400
C4199       C  0.37897395  0.09165849  0.20581020    -0.17000
C4200       C  0.36923888  0.08425813  0.20024130     0.25100
C4201       C  0.35656182  0.08565133  0.20454241    -0.18700
C4202       C  0.35369471  0.09427066  0.21453661    -0.07600
C4203       C  0.37249530  0.07496973  0.19046211    -0.14000
C4204       C  0.37622590  0.06716536  0.18271149    -0.13800
C4205       C  0.38168666  0.05785266  0.17400753     0.25000
C4206       C  0.37598583  0.05535277  0.16203339    -0.19200
C4207       C  0.38154857  0.04647062  0.15355261    -0.07600
C4208       C  0.39289632  0.04002504  0.15697239    -0.03700
C4209       C  0.39849429  0.04254669  0.16904954    -0.09000
C4210       C  0.39293019  0.05139109  0.17749223    -0.16700
H4211       H  0.38391217  0.10569789  0.22000841     0.11500
H4212       H  0.38881902  0.09066036  0.20259394     0.10800
H4213       H  0.34894530  0.07995259  0.20031069     0.10700
H4214       H  0.34388854  0.09507591  0.21788289     0.11200
H4215       H  0.36728590  0.06031330  0.15922709     0.11300
H4216       H  0.37703886  0.04470627  0.14431787     0.11200
H4217       H  0.40722424  0.03771618  0.17196636     0.11400
H4218       H  0.39744039  0.05323951  0.18671218     0.10200
C4219       C  0.40587796  0.03589826  0.33772334    -0.03600
C4220       C  0.39315048  0.03972130  0.33537018    -0.09400
C4221       C  0.39045511  0.04966817  0.32679844    -0.17000
C4222       C  0.40041015  0.05603872  0.32043473     0.25100
C4223       C  0.41316651  0.05238983  0.32274006    -0.18700
C4224       C  0.41590258  0.04234047  0.33134591    -0.07600
C4225       C  0.39726240  0.06616656  0.31148966    -0.14000
C4226       C  0.39325560  0.07424439  0.30417104    -0.13800
C4227       C  0.38725414  0.08328048  0.29552404     0.25000
C4228       C  0.39335891  0.09482660  0.29224957    -0.19200
C4229       C  0.38744014  0.10346121  0.28376042    -0.07600
C4230       C  0.37535560  0.10061321  0.27844641    -0.03700
C4231       C  0.36924997  0.08906420  0.28190345    -0.09000
C4232       C  0.37515431  0.08048159  0.29037982    -0.16700
H4233       H  0.38520591  0.03491328  0.34006084     0.11500
H4234       H  0.38055683  0.05235004  0.32507988     0.10800
H4235       H  0.42096355  0.05724143  0.31784509     0.10700
H4236       H  0.42578127  0.03956351  0.33294014     0.11200
H4237       H  0.40270051  0.09712653  0.29620846     0.11300
H4238       H  0.39234684  0.11229334  0.28127396     0.11200
H4239       H  0.35992263  0.08662481  0.27800677     0.11400
H4240       H  0.37029368  0.07162098  0.29287909     0.10200
C4241       C  0.65150974  0.15843282  0.73267816    -0.03600
C4242       C  0.65917426  0.16246610  0.72228312    -0.09400
C4243       C  0.65596246  0.17343954  0.71523287    -0.17000
C4244       C  0.64507389  0.18060666  0.71846790     0.25100
C4245       C  0.63742817  0.17673748  0.72888465    -0.18700
C4246       C  0.64061657  0.16570428  0.73595248    -0.07600
C4247       C  0.64172526  0.19173196  0.71085868    -0.14000
C4248       C  0.63941580  0.20067216  0.70379698    -0.13800
C4249       C  0.63711259  0.21077116  0.69453408     0.25000
C4250       C  0.62803346  0.22040779  0.69695856    -0.19200
C4251       C  0.62548684  0.22981814  0.68762914    -0.07600
C4252       C  0.63193847  0.22962820  0.67573000    -0.03700
C4253       C  0.64119080  0.22005268  0.67348449    -0.09000
C4254       C  0.64377034  0.21072978  0.68282279    -0.16700
H4255       H  0.66759935  0.15705465  0.71949951     0.11500
H4256       H  0.66194037  0.17628574  0.70718337     0.10800
H4257       H  0.62896060  0.18218728  0.73148300     0.10700
H4258       H  0.63454476  0.16282584  0.74390869     0.11200
H4259       H  0.62280241  0.22054744  0.70597826     0.11300
H4260       H  0.61828511  0.23704970  0.68959612     0.11200
H4261       H  0.64634825  0.21968269  0.66443584     0.11400
H4262       H  0.65083690  0.20336232  0.68082211     0.10200
C4263       C  0.60084530  0.28724993  0.64038375    -0.03600
C4264       C  0.59374354  0.29315129  0.65025870    -0.09400
C4265       C  0.58551770  0.30342711  0.64744268    -0.17000
C4266       C  0.58434461  0.30789461  0.63475781     0.25100
C4267       C  0.59157354  0.30219893  0.62495084    -0.18700
C4268       C  0.59976655  0.29197184  0.62773138    -0.07600
C4269       C  0.57535861  0.31791376  0.63156445    -0.14000
C4270       C  0.56765955  0.32576483  0.62791665    -0.13800
C4271       C  0.55831165  0.33439026  0.62247004     0.25000
C4272       C  0.55578335  0.34633738  0.62816722    -0.19200
C4273       C  0.54679676  0.35468385  0.62260695    -0.07600
C4274       C  0.54028339  0.35113820  0.61128014    -0.03700
C4275       C  0.54283653  0.33908851  0.60570780    -0.09000
C4276       C  0.55178082  0.33079638  0.61125742    -0.16700
H4277       H  0.59437577  0.28968409  0.66007247     0.11500
H4278       H  0.57993044  0.30774712  0.65510795     0.10800
H4279       H  0.59072316  0.30552865  0.61509647     0.10700
H4280       H  0.60509683  0.28761694  0.61991556     0.11200
H4281       H  0.56078779  0.34921664  0.63685546     0.11300
H4282       H  0.54499821  0.36389889  0.62710159     0.11200
H4283       H  0.53795691  0.33607624  0.59699890     0.11400
H4284       H  0.55364567  0.32158822  0.60675727     0.10200
C4285       C  0.52155853  0.11005576  0.60065709    -0.03600
C4286       C  0.51931260  0.10357529  0.61233050    -0.09400
C4287       C  0.52591627  0.09219571  0.61521616    -0.17000
C4288       C  0.53482150  0.08711749  0.60646659     0.25100
C4289       C  0.53698014  0.09345070  0.59476085    -0.18700
C4290       C  0.53041514  0.10482287  0.59187332    -0.07600
C4291       C  0.54219079  0.07577784  0.60967952    -0.14000
C4292       C  0.54913088  0.06681230  0.61224187    -0.13800
C4293       C  0.55847459  0.05694103  0.61513220     0.25000
C4294       C  0.57088776  0.05797511  0.61010176    -0.19200
C4295       C  0.58029177  0.04897898  0.61337999    -0.07600
C4296       C  0.57745548  0.03873607  0.62175081    -0.03700
C4297       C  0.56489276  0.03755652  0.62657103    -0.09000
C4298       C  0.55546583  0.04662905  0.62329637    -0.16700
H4299       H  0.51258365  0.10739324  0.61929804     0.11500
H4300       H  0.52419236  0.08744919  0.62434018     0.10800
H4301       H  0.54387520  0.08968659  0.58791896     0.10700
H4302       H  0.53236836  0.10958991  0.58281575     0.11200
H4303       H  0.57337179  0.06588250  0.60378725     0.11300
H4304       H  0.58985960  0.05015404  0.60948682     0.11200
H4305       H  0.56243502  0.02979011  0.63305037     0.11400
H4306       H  0.54590467  0.04570913  0.62728397     0.10200
C4307       C  0.47986909  0.13551658  0.56234913    -0.03600
C4308       C  0.46857828  0.12868189  0.56517185    -0.09400
C4309       C  0.45937781  0.12651599  0.55565013    -0.17000
C4310       C  0.46129557  0.13110902  0.54314273     0.25100
C4311       C  0.47265682  0.13766214  0.54011262    -0.18700
C4312       C  0.48192075  0.13986289  0.54968062    -0.07600
C4313       C  0.45130230  0.12931430  0.53371389    -0.14000
C4314       C  0.44205383  0.12726004  0.52702228    -0.13800
C4315       C  0.43036544  0.12401359  0.52034996     0.25000
C4316       C  0.42479007  0.13258592  0.51158838    -0.19200
C4317       C  0.41317761  0.12945937  0.50554068    -0.07600
C4318       C  0.40700845  0.11774475  0.50825248    -0.03700
C4319       C  0.41268157  0.10921780  0.51705948    -0.09000
C4320       C  0.42427752  0.11233501  0.52304773    -0.16700
H4321       H  0.46671835  0.12521930  0.57482955     0.11500
H4322       H  0.45064100  0.12142323  0.55810969     0.10800
H4323       H  0.47425674  0.14123743  0.53044554     0.10700
H4324       H  0.49053410  0.14514712  0.54724726     0.11200
H4325       H  0.42936151  0.14170009  0.50950084     0.11300
H4326       H  0.40898417  0.13622427  0.49883511     0.11200
H4327       H  0.40814173  0.10013879  0.51934492     0.11400
H4328       H  0.42845519  0.10566265  0.52987141     0.10200
C4329       C  0.59692726  0.23132028  0.62704624    -0.03600
C4330       C  0.58495192  0.22879821  0.63275522    -0.09400
C4331       C  0.57620763  0.22055628  0.62678170    -0.17000
C4332       C  0.57928789  0.21477280  0.61501281     0.25100
C4333       C  0.59104633  0.21748616  0.60908479    -0.18700
C4334       C  0.59983232  0.22573885  0.61506489    -0.07600
C4335       C  0.57061423  0.20555359  0.60946925    -0.14000
C4336       C  0.56312478  0.19747887  0.60589968    -0.13800
C4337       C  0.55385257  0.18766746  0.60298191     0.25000
C4338       C  0.54937224  0.18590993  0.59037751    -0.19200
C4339       C  0.53987456  0.17673025  0.58781624    -0.07600
C4340       C  0.53478607  0.16925755  0.59786668    -0.03700
C4341       C  0.53954747  0.17092390  0.61043730    -0.09000
C4342       C  0.54900561  0.18007277  0.61296644    -0.16700
H4343       H  0.58242278  0.23302381  0.64194858     0.11500
H4344       H  0.56714146  0.21851149  0.63145794     0.10800
H4345       H  0.59351295  0.21304896  0.59996761     0.10700
H4346       H  0.60895407  0.22760269  0.61042504     0.11200
H4347       H  0.55307467  0.19175536  0.58258180     0.11300
H4348       H  0.53634935  0.17564535  0.57805839     0.11200
H4349       H  0.53579924  0.16531511  0.61837292     0.11400
H4350       H  0.55240026  0.18135696  0.62275333     0.10200
C4351       C  0.35965408  0.24749149  0.63878590    -0.03600
C4352       C  0.35476865  0.23817036  0.64727782    -0.09400
C4353       C  0.34311744  0.23202794  0.64468818    -0.17000
C4354       C  0.33612743  0.23511632  0.63360259     0.25100
C4355       C  0.34083938  0.24448375  0.62513536    -0.18700
C4356       C  0.35254253  0.25064240  0.62770609    -0.07600
C4357       C  0.32446215  0.22818868  0.63074785    -0.14000
C4358       C  0.31528774  0.22136801  0.62875377    -0.13800
C4359       C  0.30529767  0.21197013  0.62674132     0.25000
C4360       C  0.29485042  0.21454065  0.61863246    -0.19200
C4361       C  0.28571098  0.20495760  0.61611753    -0.07600
C4362       C  0.28698166  0.19269822  0.62166438    -0.03700
C4363       C  0.29732130  0.19033605  0.63003421    -0.09000
C4364       C  0.30639332  0.19989430  0.63254360    -0.16700
H4365       H  0.36002835  0.23551380  0.65587067     0.11500
H4366       H  0.33962879  0.22474713  0.65127552     0.10800
H4367       H  0.33555117  0.24691955  0.61649107     0.10700
H4368       H  0.35606702  0.25778712  0.62099992     0.11200
H4369       H  0.29390095  0.22385138  0.61406957     0.11300
H4370       H  0.27785313  0.20702694  0.60962210     0.11200
H4371       H  0.29855101  0.18099766  0.63445931     0.11400
H4372       H  0.31442276  0.19777394  0.63882540     0.10200
C4373       C  0.47851299  0.16893760  0.61140135    -0.03600
C4374       C  0.47432805  0.18020833  0.60522681    -0.09400
C4375       C  0.46578645  0.18855772  0.61136903    -0.17000
C4376       C  0.46132323  0.18581666  0.62378921     0.25100
C4377       C  0.46548728  0.17464611  0.63004777    -0.18700
C4378       C  0.47402968  0.16624320  0.62388958    -0.07600
C4379       C  0.45233669  0.19444789  0.62988783    -0.14000
C4380       C  0.44465348  0.20216144  0.63391111    -0.13800
C4381       C  0.43531957  0.21189078  0.63713893     0.25000
C4382       C  0.42621407  0.21547907  0.62792029    -0.19200
C4383       C  0.41770598  0.22553146  0.63042159    -0.07600
C4384       C  0.41811243  0.23215774  0.64222703    -0.03700
C4385       C  0.42703056  0.22829221  0.65163212    -0.09000
C4386       C  0.43563630  0.21823492  0.64906786    -0.16700
H4387       H  0.47761121  0.18255172  0.59561357     0.11500
H4388       H  0.46262851  0.19714199  0.60640426     0.10800
H4389       H  0.46210238  0.17240908  0.63965971     0.10700
H4390       H  0.47713251  0.15765910  0.62888521     0.11200
H4391       H  0.42586160  0.21067185  0.61866066     0.11300
H4392       H  0.41091473  0.22825349  0.62300887     0.11200
H4393       H  0.42758244  0.23326113  0.66078497     0.11400
H4394       H  0.44267058  0.21557964  0.65627213     0.10200
C4395       C  0.41898673  0.29012021  0.62834924    -0.03600
C4396       C  0.43035539  0.29385298  0.63463409    -0.09400
C4397       C  0.43882641  0.30250043  0.62883774    -0.17000
C4398       C  0.43610274  0.30758862  0.61666798     0.25100
C4399       C  0.42477036  0.30398371  0.61032781    -0.18700
C4400       C  0.41625071  0.29528497  0.61613302    -0.07600
C4401       C  0.44499144  0.31656788  0.61092355    -0.14000
C4402       C  0.45302765  0.32412810  0.60730295    -0.13800
C4403       C  0.46311238  0.33322413  0.60446945     0.25000
C4404       C  0.46607241  0.33662514  0.59174141    -0.19200
C4405       C  0.47600414  0.34537600  0.58921221    -0.07600
C4406       C  0.48304049  0.35084572  0.59940410    -0.03700
C4407       C  0.47995059  0.34741207  0.61213286    -0.09000
C4408       C  0.47009635  0.33865315  0.61462819    -0.16700
H4409       H  0.43273044  0.29006712  0.64405411     0.11500
H4410       H  0.44752539  0.30522602  0.63386964     0.10800
H4411       H  0.42252333  0.30788534  0.60092146     0.10700
H4412       H  0.40755445  0.29260171  0.61108840     0.11200
H4413       H  0.46075430  0.33248120  0.58378416     0.11300
H4414       H  0.47820304  0.34783044  0.57932121     0.11200
H4415       H  0.48525176  0.35139027  0.62017855     0.11400
H4416       H  0.46794989  0.33607577  0.62451094     0.10200
C4417       C  0.99632597  0.90849522  0.10302507    -0.03600
C4418       C  0.99854431  0.91501067  0.11468427    -0.09400
C4419       C  0.99174978  0.92623826  0.11759793    -0.17000
C4420       C  0.98269403  0.93105858  0.10888861     0.25100
C4421       C  0.98051992  0.92468291  0.09721808    -0.18700
C4422       C  0.98728691  0.91347737  0.09429455    -0.07600
C4423       C  0.97525104  0.94225248  0.11205963    -0.14000
C4424       C  0.96830042  0.95119891  0.11440437    -0.13800
C4425       C  0.95909367  0.96120864  0.11675837     0.25000
C4426       C  0.94782601  0.96157775  0.10945362    -0.19200
C4427       C  0.93848050  0.97080786  0.11204232    -0.07600
C4428       C  0.94030889  0.97983907  0.12195151    -0.03700
C4429       C  0.95176298  0.97961408  0.12909113    -0.09000
C4430       C  0.96109850  0.97028652  0.12653042    -0.16700
H4431       H  0.00541690  0.91135119  0.12159935     0.11500
H4432       H  0.99345303  0.93107450  0.12668720     0.10800
H4433       H  0.97348919  0.92829337  0.09043694     0.10700
H4434       H  0.98534568  0.90864143  0.08526083     0.11200
H4435       H  0.94617097  0.95459566  0.10188078     0.11300
H4436       H  0.92974397  0.97077402  0.10639181     0.11200
H4437       H  0.95333827  0.98640702  0.13683907     0.11400
H4438       H  0.96977709  0.97003742  0.13228129     0.10200
C4439       C  0.03776281  0.88403336  0.06426670    -0.03600
C4440       C  0.03607596  0.87891073  0.05183079    -0.09400
C4441       C  0.04500674  0.88155495  0.04206683    -0.17000
C4442       C  0.05567983  0.88936559  0.04462356     0.25100
C4443       C  0.05725918  0.89465216  0.05692480    -0.18700
C4444       C  0.04838891  0.89201693  0.06666410    -0.07600
C4445       C  0.06528110  0.89176001  0.03487277    -0.14000
C4446       C  0.07401096  0.89408043  0.02755982    -0.13800
C4447       C  0.08511203  0.89720533  0.01982263     0.25000
C4448       C  0.09058860  0.90946668  0.02066151    -0.19200
C4449       C  0.10192665  0.91228762  0.01401239    -0.07600
C4450       C  0.10797501  0.90288295  0.00639891    -0.03700
C4451       C  0.10224021  0.89069002  0.00531449    -0.09000
C4452       C  0.09090371  0.88786538  0.01202356    -0.16700
H4453       H  0.02800028  0.87270890  0.04972537     0.11500
H4454       H  0.04367254  0.87738538  0.03258980     0.10800
H4455       H  0.06546378  0.90069841  0.05904645     0.10700
H4456       H  0.04995440  0.89609777  0.07613890     0.11200
H4457       H  0.08624273  0.91677382  0.02667382     0.11300
H4458       H  0.10608865  0.92177358  0.01501994     0.11200
H4459       H  0.10668954  0.88325073  0.99955153     0.11400
H4460       H  0.08680154  0.87831808  0.01132971     0.10200
C4461       C  0.78891636  0.69249252  0.12228112    -0.03600
C4462       C  0.78781847  0.70452594  0.11622480    -0.09400
C4463       C  0.79662002  0.71436066  0.11893591    -0.17000
C4464       C  0.80657260  0.71230262  0.12777814     0.25100
C4465       C  0.80757561  0.70041406  0.13399559    -0.18700
C4466       C  0.79883552  0.69057653  0.13126785    -0.07600
C4467       C  0.81607264  0.72211855  0.13022064    -0.14000
C4468       C  0.82474187  0.72948933  0.13253485    -0.13800
C4469       C  0.83589440  0.73712572  0.13566072     0.25000
C4470       C  0.84116537  0.73647009  0.14805045    -0.19200
C4471       C  0.85271082  0.74274166  0.15083795    -0.07600
C4472       C  0.85916494  0.74979054  0.14126840    -0.03700
C4473       C  0.85359813  0.75079642  0.12896209    -0.09000
C4474       C  0.84205183  0.74445239  0.12616741    -0.16700
H4475       H  0.78030877  0.70625003  0.10922352     0.11500
H4476       H  0.79575893  0.72349673  0.11401978     0.10800
H4477       H  0.81523744  0.69868114  0.14083730     0.10700
H4478       H  0.79993158  0.68142095  0.13608330     0.11200
H4479       H  0.83652313  0.73082744  0.15547773     0.11300
H4480       H  0.85672053  0.74186094  0.16042576     0.11200
H4481       H  0.85834832  0.75617222  0.12141257     0.11400
H4482       H  0.83810240  0.74500142  0.11652554     0.10200
C4483       C  0.86637208  0.85919775  0.23618323    -0.03600
C4484       C  0.85810556  0.85361575  0.22705083    -0.09400
C4485       C  0.86124215  0.84190857  0.22125262    -0.17000
C4486       C  0.87266210  0.83561706  0.22449299     0.25100
C4487       C  0.88084379  0.84099448  0.23374973    -0.18700
C4488       C  0.87770833  0.85271281  0.23958638    -0.07600
C4489       C  0.87628201  0.82414164  0.21762089    -0.14000
C4490       C  0.87888547  0.81528530  0.21058025    -0.13800
C4491       C  0.88129641  0.80591920  0.20063682     0.25000
C4492       C  0.88929823  0.79531500  0.20279718    -0.19200
C4493       C  0.89188490  0.78665508  0.19275482    -0.07600
C4494       C  0.88651394  0.78857873  0.18046539    -0.03700
C4495       C  0.87837779  0.79915787  0.17848530    -0.09000
C4496       C  0.87580059  0.80773926  0.18848443    -0.16700
H4497       H  0.84930159  0.85837683  0.22426354     0.11500
H4498       H  0.85486624  0.83787881  0.21405143     0.10800
H4499       H  0.88974383  0.83625498  0.23628382     0.10700
H4500       H  0.88423874  0.85679386  0.24660618     0.11200
H4501       H  0.89363148  0.79382131  0.21216673     0.11300
H4502       H  0.89819246  0.77859258  0.19453630     0.11200
H4503       H  0.87408716  0.80089207  0.16914016     0.11400
H4504       H  0.86961497  0.81590954  0.18668517     0.10200
C4505       C  0.98241043  0.85092437  0.10025839    -0.03600
C4506       C  0.97791717  0.84912768  0.11290420    -0.09400
C4507       C  0.96769569  0.84081982  0.11536358    -0.17000
C4508       C  0.96178464  0.83419022  0.10524859     0.25100
C4509       C  0.96602634  0.83608420  0.09257404    -0.18700
C4510       C  0.97629758  0.84442714  0.09007995    -0.07600
C4511       C  0.95178891  0.82506906  0.10814468    -0.14000
C4512       C  0.94401580  0.81732036  0.11187623    -0.13800
C4513       C  0.93550757  0.80805843  0.11767296     0.25000
C4514       C  0.92272127  0.80698420  0.11364466    -0.19200
C4515       C  0.91443944  0.79827295  0.11972186    -0.07600
C4516       C  0.91886811  0.79059129  0.12993461    -0.03700
C4517       C  0.93174702  0.79168015  0.13383875    -0.09000
C4518       C  0.93999731  0.80034036  0.12774393    -0.16700
H4519       H  0.98242194  0.85400445  0.12093801     0.11500
H4520       H  0.96452472  0.83941393  0.12521103     0.10800
H4521       H  0.96153182  0.83098482  0.08466442     0.10700
H4522       H  0.97956131  0.84566129  0.08025491     0.11200
H4523       H  0.91912625  0.81294965  0.10589050     0.11300
H4524       H  0.90456649  0.79764015  0.11653854     0.11200
H4525       H  0.93544313  0.78587426  0.14165765     0.11400
H4526       H  0.94984986  0.80110189  0.13097005     0.10200
C4527       C  0.02060606  0.61003255  0.10472398    -0.03600
C4528       C  0.02891721  0.60432310  0.09571348    -0.09400
C4529       C  0.03576514  0.59320495  0.09885256    -0.17000
C4530       C  0.03443985  0.58760798  0.11104288     0.25100
C4531       C  0.02605065  0.59312993  0.12003226    -0.18700
C4532       C  0.01914977  0.60426182  0.11689036    -0.07600
C4533       C  0.04211437  0.57653689  0.11438719    -0.14000
C4534       C  0.04929058  0.56770770  0.11670498    -0.13800
C4535       C  0.05878851  0.55783387  0.11890750     0.25000
C4536       C  0.07050190  0.55839698  0.11234535    -0.19200
C4537       C  0.07999958  0.54921297  0.11467371    -0.07600
C4538       C  0.07793663  0.53925147  0.12359213    -0.03700
C4539       C  0.06608398  0.53860852  0.13004223    -0.09000
C4540       C  0.05657311  0.54787047  0.12772473    -0.16700
H4541       H  0.03024755  0.60854048  0.08627181     0.11500
H4542       H  0.04224115  0.58907190  0.09181712     0.10800
H4543       H  0.02497012  0.58893417  0.12952235     0.10700
H4544       H  0.01285282  0.60846936  0.12403483     0.11200
H4545       H  0.07235839  0.56603731  0.10550506     0.11300
H4546       H  0.08902018  0.54997903  0.10955745     0.11200
H4547       H  0.06425563  0.53108659  0.13700562     0.11400
H4548       H  0.04755982  0.54733174  0.13289337     0.10200
C4549       C  0.90856710  0.61627657  0.00841079    -0.03600
C4550       C  0.91474898  0.60736324  0.01646518    -0.09400
C4551       C  0.92611809  0.61064089  0.02281643    -0.17000
C4552       C  0.93149377  0.62286187  0.02122133     0.25100
C4553       C  0.92556172  0.63172096  0.01299187    -0.18700
C4554       C  0.91417568  0.62843764  0.00658337    -0.07600
C4555       C  0.94270639  0.62638347  0.02858240    -0.14000
C4556       C  0.95160650  0.62867417  0.03568121    -0.13800
C4557       C  0.96146819  0.63066408  0.04523750     0.25000
C4558       C  0.97103551  0.63997177  0.04348838    -0.19200
C4559       C  0.98013402  0.64221635  0.05319444    -0.07600
C4560       C  0.97968317  0.63521996  0.06477760    -0.03700
C4561       C  0.97023079  0.62570155  0.06630162    -0.09000
C4562       C  0.96120934  0.62344585  0.05660268    -0.16700
H4563       H  0.91068559  0.59791295  0.01802487     0.11500
H4564       H  0.93059378  0.60370964  0.02916941     0.10800
H4565       H  0.92960486  0.64122501  0.01170509     0.10700
H4566       H  0.90962271  0.63548736  0.00043076     0.11200
H4567       H  0.97133483  0.64562883  0.03473493     0.11300
H4568       H  0.98729023  0.64962776  0.05178684     0.11200
H4569       H  0.96966307  0.62014491  0.07509980     0.11400
H4570       H  0.95387461  0.61620730  0.05807070     0.10200
C4571       C  0.91768899  0.73295763  0.14425144    -0.03600
C4572       C  0.91903967  0.72777418  0.13180956    -0.09400
C4573       C  0.92754473  0.71765921  0.12951157    -0.17000
C4574       C  0.93483719  0.71252599  0.13958964     0.25100
C4575       C  0.93346287  0.71751795  0.15206715    -0.18700
C4576       C  0.92492348  0.72767789  0.15439571    -0.07600
C4577       C  0.94393528  0.70242402  0.13684554    -0.14000
C4578       C  0.95148246  0.69439847  0.13318338    -0.13800
C4579       C  0.96041837  0.68557380  0.12728013     0.25000
C4580       C  0.96159138  0.67287957  0.13164680    -0.19200
C4581       C  0.96999861  0.66434234  0.12545331    -0.07600
C4582       C  0.97725215  0.66840710  0.11477853    -0.03700
C4583       C  0.97601441  0.68116629  0.11050755    -0.09000
C4584       C  0.96769555  0.68966602  0.11672557    -0.16700
H4585       H  0.91364525  0.73165882  0.12379103     0.11500
H4586       H  0.92854281  0.71393137  0.11981049     0.10800
H4587       H  0.93908080  0.71366725  0.15995016     0.10700
H4588       H  0.92411645  0.73151653  0.16405909     0.11200
H4589       H  0.95596547  0.66956596  0.13976581     0.11300
H4590       H  0.97075665  0.65456714  0.12893586     0.11200
H4591       H  0.98150552  0.68460222  0.10235153     0.11400
H4592       H  0.96686673  0.69943762  0.11322139     0.10200
C4593       C  0.15790617  0.77082298  0.14002593    -0.03600
C4594       C  0.16472244  0.76811579  0.12864918    -0.09400
C4595       C  0.17630077  0.77444928  0.12599387    -0.17000
C4596       C  0.18121870  0.78349930  0.13470250     0.25100
C4597       C  0.17458478  0.78605906  0.14614210    -0.18700
C4598       C  0.16302682  0.77977314  0.14879394    -0.07600
C4599       C  0.19266509  0.79070667  0.13168900    -0.14000
C4600       C  0.20162795  0.79771157  0.12941189    -0.13800
C4601       C  0.21137015  0.80725427  0.12693880     0.25000
C4602       C  0.22169618  0.80465360  0.11868855    -0.19200
C4603       C  0.23062924  0.81431507  0.11578376    -0.07600
C4604       C  0.22927504  0.82668840  0.12107940    -0.03700
C4605       C  0.21901491  0.82911433  0.12952424    -0.09000
C4606       C  0.21015234  0.81947212  0.13243269    -0.16700
H4607       H  0.16101432  0.76125424  0.12173469     0.11500
H4608       H  0.18131198  0.77242718  0.11707622     0.10800
H4609       H  0.17824880  0.79307166  0.15293532     0.10700
H4610       H  0.15802274  0.78202824  0.15765551     0.11200
H4611       H  0.22272889  0.79523925  0.11434801     0.11300
H4612       H  0.23842251  0.81219182  0.10923165     0.11200
H4613       H  0.21772572  0.83854052  0.13375854     0.11400
H4614       H  0.20220872  0.82161824  0.13881061     0.10200
C4615       C  0.15199229  0.65793218  0.23328035    -0.03600
C4616       C  0.16039126  0.66265831  0.22379905    -0.09400
C4617       C  0.15756408  0.67400841  0.21721141    -0.17000
C4618       C  0.14635099  0.68083098  0.22004654     0.25100
C4619       C  0.13796026  0.67624398  0.22953059    -0.18700
C4620       C  0.14075492  0.66484260  0.23611335    -0.07600
C4621       C  0.14341742  0.69235431  0.21296155    -0.14000
C4622       C  0.14139750  0.70162728  0.20629985    -0.13800
C4623       C  0.13935497  0.71197020  0.19732362     0.25000
C4624       C  0.13000283  0.72135328  0.19965691    -0.19200
C4625       C  0.12736218  0.73070268  0.19031792    -0.07600
C4626       C  0.13400111  0.73066696  0.17853022    -0.03700
C4627       C  0.14370089  0.72150604  0.17649419    -0.09000
C4628       C  0.14635013  0.71223386  0.18582910    -0.16700
H4629       H  0.16907862  0.65750004  0.22136065     0.11500
H4630       H  0.16408867  0.67742047  0.20984195     0.10800
H4631       H  0.12922633  0.68142445  0.23177105     0.10700
H4632       H  0.13411351  0.66140137  0.24335628     0.11200
H4633       H  0.12453443  0.72124194  0.20853451     0.11300
H4634       H  0.11984256  0.73764992  0.19211778     0.11200
H4635       H  0.14901367  0.72128857  0.16753416     0.11400
H4636       H  0.15363034  0.70504799  0.18392639     0.10200
C4637       C  0.09834958  0.78421295  0.14214661    -0.03600
C4638       C  0.09624060  0.78838002  0.12943300    -0.09400
C4639       C  0.08759694  0.79828970  0.12685609    -0.17000
C4640       C  0.08090935  0.80420038  0.13692423     0.25100
C4641       C  0.08292561  0.80013403  0.14963675    -0.18700
C4642       C  0.09162064  0.79019014  0.15224843    -0.07600
C4643       C  0.07197572  0.81435460  0.13400326    -0.14000
C4644       C  0.06469074  0.82257222  0.13030522    -0.13800
C4645       C  0.05618592  0.83180219  0.12447242     0.25000
C4646       C  0.05242856  0.84291755  0.13110342    -0.19200
C4647       C  0.04422220  0.85181710  0.12520318    -0.07600
C4648       C  0.03967930  0.84963675  0.11263178    -0.03700
C4649       C  0.04355880  0.83848061  0.10605706    -0.09000
C4650       C  0.05175793  0.82965602  0.11193092    -0.16700
H4651       H  0.10124988  0.78394847  0.12144488     0.11500
H4652       H  0.08610507  0.80132288  0.11698553     0.10800
H4653       H  0.07776800  0.80461647  0.15750680     0.10700
H4654       H  0.09301797  0.78712844  0.16211680     0.11200
H4655       H  0.05582078  0.84469186  0.14081134     0.11300
H4656       H  0.04134773  0.86031604  0.13048827     0.11200
H4657       H  0.04023725  0.83655230  0.09635850     0.11400
H4658       H  0.05463497  0.82112597  0.10667927     0.10200
C4659       C  0.03486810  0.66767199  0.10055794    -0.03600
C4660       C  0.04047251  0.66841225  0.11285788    -0.09400
C4661       C  0.05073466  0.67671240  0.11519001    -0.17000
C4662       C  0.05556522  0.68443678  0.10529562     0.25100
C4663       C  0.05016312  0.68367402  0.09294043    -0.18700
C4664       C  0.03987522  0.67529254  0.09056141    -0.07600
C4665       C  0.06573826  0.69339283  0.10816775    -0.14000
C4666       C  0.07380955  0.70077961  0.11203611    -0.13800
C4667       C  0.08273307  0.70947205  0.11812807     0.25000
C4668       C  0.09343511  0.71417799  0.11145817    -0.19200
C4669       C  0.10193697  0.72269948  0.11752315    -0.07600
C4670       C  0.09979547  0.72662390  0.13031160    -0.03700
C4671       C  0.08908494  0.72175797  0.13695452    -0.09000
C4672       C  0.08063867  0.71324229  0.13090306    -0.16700
H4673       H  0.03684070  0.66264971  0.12074090     0.11500
H4674       H  0.05480353  0.67722793  0.12478936     0.10800
H4675       H  0.05378769  0.68964772  0.08521101     0.10700
H4676       H  0.03570518  0.67493724  0.08101447     0.11200
H4677       H  0.09517083  0.71131826  0.10157395     0.11300
H4678       H  0.11009285  0.72632785  0.11217538     0.11200
H4679       H  0.08718479  0.72459509  0.14681080     0.11400
H4680       H  0.07241647  0.70964331  0.13618154     0.10200
C4681       C  0.35926588  0.74606806  0.35441092    -0.03600
C4682       C  0.35516704  0.73509246  0.34765845    -0.09400
C4683       C  0.34392115  0.72869875  0.35123278    -0.17000
C4684       C  0.33653477  0.73319192  0.36155725     0.25100
C4685       C  0.34043054  0.74424285  0.36823313    -0.18700
C4686       C  0.35174686  0.75064284  0.36469371    -0.07600
C4687       C  0.32519936  0.72614775  0.36535855    -0.14000
C4688       C  0.31621154  0.71920376  0.36777831    -0.13800
C4689       C  0.30628801  0.70969317  0.36969976     0.25000
C4690       C  0.29606676  0.71185632  0.37821741    -0.19200
C4691       C  0.28675284  0.70229893  0.38017882    -0.07600
C4692       C  0.28763075  0.69045635  0.37368615    -0.03700
C4693       C  0.29782228  0.68847406  0.36504273    -0.09000
C4694       C  0.30704503  0.69801243  0.36306377    -0.16700
H4695       H  0.36076721  0.73131787  0.33972391     0.11500
H4696       H  0.34104826  0.72014734  0.34600619     0.10800
H4697       H  0.33480851  0.74783002  0.37624048     0.10700
H4698       H  0.35466104  0.75909217  0.37004059     0.11200
H4699       H  0.29536803  0.72085152  0.38343019     0.11300
H4700       H  0.27904106  0.70405941  0.38693449     0.11200
H4701       H  0.29875376  0.67946771  0.35989366     0.11400
H4702       H  0.31487824  0.69620905  0.35643763     0.10200
C4703       C  0.38298728  0.78655845  0.31468664    -0.03600
C4704       C  0.37515842  0.79718891  0.31752535    -0.09400
C4705       C  0.37273150  0.80652542  0.30819680    -0.17000
C4706       C  0.37805241  0.80537601  0.29588247     0.25100
C4707       C  0.38550222  0.79459952  0.29280622    -0.18700
C4708       C  0.38795576  0.78521101  0.30216415    -0.07600
C4709       C  0.37624572  0.81560001  0.28671862    -0.14000
C4710       C  0.37446247  0.82481583  0.27991000    -0.13800
C4711       C  0.37176068  0.83631115  0.27268666     0.25000
C4712       C  0.38084358  0.84139996  0.26414423    -0.19200
C4713       C  0.37820562  0.85276522  0.25742326    -0.07600
C4714       C  0.36645972  0.85916157  0.25921806    -0.03700
C4715       C  0.35742138  0.85397469  0.26782332    -0.09000
C4716       C  0.36006003  0.84263283  0.27449584    -0.16700
H4717       H  0.37117822  0.79848069  0.32707588     0.11500
H4718       H  0.36693732  0.81480149  0.31068651     0.10800
H4719       H  0.38964540  0.79360241  0.28328283     0.10700
H4720       H  0.39400445  0.77711434  0.29972323     0.11200
H4721       H  0.38997126  0.83663195  0.26273497     0.11300
H4722       H  0.38536744  0.85659258  0.25091274     0.11200
H4723       H  0.34831636  0.85871376  0.26944136     0.11400
H4724       H  0.35299068  0.83882973  0.28113493     0.10200
C4725       C  0.49608615  0.90725904  0.39080918    -0.03600
C4726       C  0.48754328  0.91285996  0.39966384    -0.09400
C4727       C  0.48096651  0.92414910  0.39656662    -0.17000
C4728       C  0.48280043  0.93002397  0.38457878     0.25100
C4729       C  0.49140361  0.92459441  0.37573961    -0.18700
C4730       C  0.49802702  0.91328716  0.37883752    -0.07600
C4731       C  0.47536493  0.94124406  0.38122439    -0.14000
C4732       C  0.46830121  0.95011337  0.37874348    -0.13800
C4733       C  0.45884905  0.95990465  0.37607360     0.25000
C4734       C  0.46241248  0.97179085  0.37081765    -0.19200
C4735       C  0.45304583  0.98105959  0.36800887    -0.07600
C4736       C  0.44001563  0.97854739  0.37048901    -0.03700
C4737       C  0.43656804  0.96663295  0.37586962    -0.09000
C4738       C  0.44590296  0.95739919  0.37861411    -0.16700
H4739       H  0.48583011  0.90843292  0.40894482     0.11500
H4740       H  0.47429850  0.92820298  0.40347272     0.10800
H4741       H  0.49286248  0.92899741  0.36639979     0.10700
H4742       H  0.50451053  0.90916425  0.37181097     0.11200
H4743       H  0.47240501  0.97386204  0.36881573     0.11300
H4744       H  0.45597427  0.99014831  0.36387760     0.11200
H4745       H  0.42661600  0.96438268  0.37784385     0.11400
H4746       H  0.44300150  0.94825289  0.38265726     0.10200
C4747       C  0.53706971  0.88207375  0.43021843    -0.03600
C4748       C  0.54711959  0.89079783  0.42792964    -0.09400
C4749       C  0.55607956  0.89358333  0.43753740    -0.17000
C4750       C  0.55520790  0.88768742  0.44960746     0.25100
C4751       C  0.54506406  0.87917467  0.45211558    -0.18700
C4752       C  0.53599976  0.87640477  0.44247707    -0.07600
C4753       C  0.56508757  0.89013750  0.45906992    -0.14000
C4754       C  0.57411212  0.89262660  0.46596299    -0.13800
C4755       C  0.58548968  0.89603004  0.47316589     0.25000
C4756       C  0.59123911  0.88716606  0.48151934    -0.19200
C4757       C  0.60267040  0.89029552  0.48792076    -0.07600
C4758       C  0.60851829  0.90232601  0.48600322    -0.03700
C4759       C  0.60258243  0.91123335  0.47774770    -0.09000
C4760       C  0.59116750  0.90809622  0.47137567    -0.16700
H4761       H  0.54817135  0.89536490  0.41861535     0.11500
H4762       H  0.56384695  0.90019638  0.43546279     0.10800
H4763       H  0.54427695  0.87453651  0.46142269     0.10700
H4764       H  0.52836796  0.86964452  0.44449922     0.11200
H4765       H  0.58698640  0.87777254  0.48294648     0.11300
H4766       H  0.60703835  0.88323771  0.49420220     0.11200
H4767       H  0.60685790  0.92056576  0.47606915     0.11400
H4768       H  0.58686631  0.91502666  0.46490129     0.10200
C4769       C  0.41816757  0.78909831  0.36229015    -0.03600
C4770       C  0.41730931  0.79166065  0.37556356    -0.09400
C4771       C  0.42593140  0.80015989  0.38146479    -0.17000
C4772       C  0.43544974  0.80624408  0.37414814     0.25100
C4773       C  0.43630140  0.80378888  0.36090956    -0.18700
C4774       C  0.42775306  0.79525054  0.35501823    -0.07600
C4775       C  0.44437347  0.81502499  0.38010465    -0.14000
C4776       C  0.45220638  0.82255737  0.38417451    -0.13800
C4777       C  0.46197588  0.83176323  0.38759704     0.25000
C4778       C  0.46714897  0.83962066  0.37799311    -0.19200
C4779       C  0.47697766  0.84824438  0.38092860    -0.07600
C4780       C  0.48183218  0.84914866  0.39354205    -0.03700
C4781       C  0.47648860  0.84137107  0.40323173    -0.09000
C4782       C  0.46659535  0.83270677  0.40025772    -0.16700
H4783       H  0.41005964  0.78699355  0.38139806     0.11500
H4784       H  0.42518764  0.80196663  0.39171624     0.10800
H4785       H  0.44360576  0.80845637  0.35513517     0.10700
H4786       H  0.42862885  0.79347824  0.34477444     0.11200
H4787       H  0.46368635  0.83897019  0.36816550     0.11300
H4788       H  0.48091229  0.85407866  0.37325021     0.11200
H4789       H  0.48007607  0.84184983  0.41300876     0.11400
H4790       H  0.46267168  0.82665083  0.40777580     0.10200
C4791       C  0.65741474  0.77179487  0.35443065    -0.03600
C4792       C  0.66389264  0.76948459  0.36610187    -0.09400
C4793       C  0.67525106  0.77614142  0.36905111    -0.17000
C4794       C  0.68027882  0.78515711  0.36036763     0.25100
C4795       C  0.67391125  0.78740438  0.34870957    -0.18700
C4796       C  0.66259588  0.78079177  0.34576043    -0.07600
C4797       C  0.69163482  0.79254072  0.36350389    -0.14000
C4798       C  0.70058032  0.79964823  0.36567020    -0.13800
C4799       C  0.71031263  0.80932679  0.36788243     0.25000
C4800       C  0.72205257  0.80626129  0.37374433    -0.19200
C4801       C  0.73111232  0.81594208  0.37629421    -0.07600
C4802       C  0.72853518  0.82878030  0.37293898    -0.03700
C4803       C  0.71683416  0.83169013  0.36685759    -0.09000
C4804       C  0.70781293  0.82206027  0.36438562    -0.16700
H4805       H  0.66011940  0.76264225  0.37298265     0.11500
H4806       H  0.68002976  0.77435154  0.37814271     0.10800
H4807       H  0.67762633  0.79439050  0.34192982     0.10700
H4808       H  0.65783289  0.78281413  0.33671112     0.11200
H4809       H  0.72413826  0.79644121  0.37647663     0.11300
H4810       H  0.74005202  0.81342010  0.38095924     0.11200
H4811       H  0.71454069  0.84147865  0.36419385     0.11400
H4812       H  0.69878906  0.82458906  0.35986087     0.10200
C4813       C  0.65180927  0.65896373  0.25893489    -0.03600
C4814       C  0.64046253  0.66572752  0.25613005    -0.09400
C4815       C  0.63776603  0.67740451  0.26232177    -0.17000
C4816       C  0.64637493  0.68248631  0.27137218     0.25100
C4817       C  0.65774806  0.67586179  0.27409610    -0.18700
C4818       C  0.66044917  0.66420301  0.26793696    -0.07600
C4819       C  0.64333732  0.69411479  0.27837927    -0.14000
C4820       C  0.64105221  0.70326529  0.28520154    -0.13800
C4821       C  0.63868332  0.71326600  0.29458805     0.25000
C4822       C  0.62829756  0.72172352  0.29324228    -0.19200
C4823       C  0.62553146  0.73067380  0.30298102    -0.07600
C4824       C  0.63305260  0.73115076  0.31423353    -0.03700
C4825       C  0.64361279  0.72283726  0.31534979    -0.09000
C4826       C  0.64642584  0.71401377  0.30558810    -0.16700
H4827       H  0.63362196  0.66192942  0.24925740     0.11500
H4828       H  0.62889599  0.68238263  0.26016499     0.10800
H4829       H  0.66446603  0.67962841  0.28111708     0.10700
H4830       H  0.66925981  0.65922753  0.27031200     0.11200
H4831       H  0.62218184  0.72121964  0.28481200     0.11300
H4832       H  0.61730341  0.73691612  0.30190566     0.11200
H4833       H  0.64960262  0.72302425  0.32388154     0.11400
H4834       H  0.65448138  0.70754556  0.30676943     0.10200
C4835       C  0.53824259  0.84855681  0.37987791    -0.03600
C4836       C  0.53889882  0.83551910  0.38335588    -0.09400
C4837       C  0.54737642  0.82721962  0.37707546    -0.17000
C4838       C  0.55534330  0.83181518  0.36724848     0.25100
C4839       C  0.55466498  0.84476124  0.36362166    -0.18700
C4840       C  0.54612356  0.85308800  0.36987011    -0.07600
C4841       C  0.56453706  0.82327857  0.36137092    -0.14000
C4842       C  0.57234278  0.81556384  0.35762738    -0.13800
C4843       C  0.58169507  0.80573932  0.35484783     0.25000
C4844       C  0.58356459  0.80118107  0.34226763    -0.19200
C4845       C  0.59223664  0.79113418  0.33993663    -0.07600
C4846       C  0.59907438  0.78554412  0.35018781    -0.03700
C4847       C  0.59725969  0.79034516  0.36272209    -0.09000
C4848       C  0.58865365  0.80035283  0.36501598    -0.16700
H4849       H  0.53290285  0.83174169  0.39098638     0.11500
H4850       H  0.54782763  0.81723973  0.37999807     0.10800
H4851       H  0.56082755  0.84844599  0.35607323     0.10700
H4852       H  0.54581118  0.86308652  0.36700990     0.11200
H4853       H  0.57821177  0.80525695  0.33431579     0.11300
H4854       H  0.59343635  0.78760834  0.33019270     0.11200
H4855       H  0.60238679  0.78625137  0.37081448     0.11400
H4856       H  0.58728572  0.80377293  0.37478879     0.10200
C4857       C  0.51967083  0.60826333  0.38888405    -0.03600
C4858       C  0.51715705  0.60174140  0.37727150    -0.09400
C4859       C  0.52342535  0.59014985  0.37447869    -0.17000
C4860       C  0.53222755  0.58497496  0.38326715     0.25100
C4861       C  0.53460511  0.59133820  0.39490129    -0.18700
C4862       C  0.52837970  0.60287834  0.39769731    -0.07600
C4863       C  0.53944676  0.57357154  0.38019906    -0.14000
C4864       C  0.54662460  0.56469561  0.37821182    -0.13800
C4865       C  0.55641310  0.55510192  0.37634423     0.25000
C4866       C  0.55388167  0.54384442  0.36937848    -0.19200
C4867       C  0.56369997  0.53492085  0.36715056    -0.07600
C4868       C  0.57614547  0.53719916  0.37186303    -0.03700
C4869       C  0.57851658  0.54840697  0.37905836    -0.09000
C4870       C  0.56872302  0.55728373  0.38126595    -0.16700
H4871       H  0.51050176  0.60567622  0.37030905     0.11500
H4872       H  0.52155843  0.58534095  0.36540494     0.10800
H4873       H  0.54144513  0.58747948  0.40174071     0.10700
H4874       H  0.53052347  0.60768100  0.40670960     0.11200
H4875       H  0.54438411  0.54205574  0.36551666     0.11300
H4876       H  0.56162621  0.52637884  0.36155884     0.11200
H4877       H  0.58800667  0.55043902  0.38279096     0.11400
H4878       H  0.57080574  0.56595577  0.38665965     0.10200
C4879       C  0.47934215  0.63456727  0.42798357    -0.03600
C4880       C  0.48133824  0.63946406  0.44046909    -0.09400
C4881       C  0.47238636  0.63706335  0.45029469    -0.17000
C4882       C  0.46137952  0.62971718  0.44774514     0.25100
C4883       C  0.45947262  0.62469492  0.43538013    -0.18700
C4884       C  0.46835144  0.62709407  0.42558808    -0.07600
C4885       C  0.45176207  0.62748108  0.45753935    -0.14000
C4886       C  0.44283054  0.62513196  0.46460856    -0.13800
C4887       C  0.43134005  0.62182076  0.47169636     0.25000
C4888       C  0.42754298  0.62891475  0.48253504    -0.19200
C4889       C  0.41596763  0.62603920  0.48883155    -0.07600
C4890       C  0.40805194  0.61601411  0.48436736    -0.03700
C4891       C  0.41205218  0.60883729  0.47360332    -0.09000
C4892       C  0.42357409  0.61173576  0.46732239    -0.16700
H4893       H  0.48969324  0.64528632  0.44257508     0.11500
H4894       H  0.47398164  0.64103713  0.45981226     0.10800
H4895       H  0.45101035  0.61901397  0.43325492     0.10700
H4896       H  0.46652953  0.62320002  0.41608139     0.11200
H4897       H  0.43343516  0.63676124  0.48601811     0.11300
H4898       H  0.41316552  0.63170513  0.49712070     0.11200
H4899       H  0.40618328  0.60106508  0.46992167     0.11400
H4900       H  0.42634778  0.60619781  0.45892833     0.10200
C4901       C  0.53473314  0.66736464  0.39226415    -0.03600
C4902       C  0.54042684  0.67415902  0.40250344    -0.09400
C4903       C  0.55030248  0.68301811  0.40011649    -0.17000
C4904       C  0.55457429  0.68515297  0.38748528     0.25100
C4905       C  0.54905544  0.67827347  0.37730998    -0.18700
C4906       C  0.53923214  0.66945272  0.37966361    -0.07600
C4907       C  0.56437518  0.69455857  0.38471399    -0.14000
C4908       C  0.57223363  0.70228681  0.38107678    -0.13800
C4909       C  0.58111756  0.71126448  0.37534661     0.25000
C4910       C  0.57782733  0.71740003  0.36381765    -0.19200
C4911       C  0.58649106  0.72575507  0.35786885    -0.07600
C4912       C  0.59859984  0.72814136  0.36337332    -0.03700
C4913       C  0.60184068  0.72200752  0.37499284    -0.09000
C4914       C  0.59314394  0.71359700  0.38093288    -0.16700
H4915       H  0.53713232  0.67275635  0.41229469     0.11500
H4916       H  0.55449231  0.68828825  0.40808067     0.10800
H4917       H  0.55225496  0.67983654  0.36749673     0.10700
H4918       H  0.53503296  0.66439227  0.37157536     0.11200
H4919       H  0.56858240  0.71566229  0.35937235     0.11300
H4920       H  0.58369335  0.73036317  0.34894818     0.11200
H4921       H  0.61108953  0.72368136  0.37944884     0.11400
H4922       H  0.59582439  0.70886709  0.38983202     0.10200
C4923       C  0.47787139  0.66753406  0.37879136    -0.03600
C4924       C  0.47588016  0.67993509  0.38377691    -0.09400
C4925       C  0.46723314  0.68830237  0.37787562    -0.17000
C4926       C  0.46042966  0.68440876  0.36692530     0.25100
C4927       C  0.46240740  0.67210302  0.36181875    -0.18700
C4928       C  0.47111532  0.66370114  0.36770760    -0.07600
C4929       C  0.45122585  0.69304210  0.36126860    -0.14000
C4930       C  0.44354261  0.70092931  0.35767924    -0.13800
C4931       C  0.43448850  0.71099597  0.35487539     0.25000
C4932       C  0.42810136  0.71704642  0.36505269    -0.19200
C4933       C  0.41972445  0.72721264  0.36262343    -0.07600
C4934       C  0.41760049  0.73150840  0.34995387    -0.03700
C4935       C  0.42391209  0.72529301  0.33973003    -0.09000
C4936       C  0.43233556  0.71508459  0.34219372    -0.16700
H4937       H  0.48097968  0.68316715  0.39227858     0.11500
H4938       H  0.46577709  0.69778881  0.38192207     0.10800
H4939       H  0.45716520  0.66897801  0.35335906     0.10700
H4940       H  0.47247794  0.65419852  0.36368039     0.11200
H4941       H  0.42971028  0.71400088  0.37490056     0.11300
H4942       H  0.41500464  0.73179946  0.37070099     0.11200
H4943       H  0.42245267  0.72841438  0.32988941     0.11400
H4944       H  0.43726362  0.71048470  0.33424066     0.10200
C4945       C  0.38483989  0.72930091  0.81468301    -0.03600
C4946       C  0.38894610  0.73106677  0.80189890    -0.09400
C4947       C  0.38595606  0.72193368  0.79241641    -0.17000
C4948       C  0.37882524  0.71097003  0.79561428     0.25100
C4949       C  0.37461629  0.70923501  0.80829495    -0.18700
C4950       C  0.37758954  0.71831789  0.81775573    -0.07600
C4951       C  0.37601741  0.70125953  0.78609740    -0.14000
C4952       C  0.37343353  0.69238237  0.77905955    -0.13800
C4953       C  0.37008604  0.68100230  0.77186586     0.25000
C4954       C  0.36033505  0.67296075  0.77643237    -0.19200
C4955       C  0.35745197  0.66151744  0.77000906    -0.07600
C4956       C  0.36435087  0.65789186  0.75894987    -0.03700
C4957       C  0.37405000  0.66606490  0.75430911    -0.09000
C4958       C  0.37687683  0.67758526  0.76072383    -0.16700
H4959       H  0.39456460  0.73941738  0.79927446     0.11500
H4960       H  0.38929534  0.72336678  0.78263423     0.10800
H4961       H  0.36912404  0.70078890  0.81090285     0.10700
H4962       H  0.37430647  0.71667325  0.82751493     0.11200
H4963       H  0.35506322  0.67545162  0.78508118     0.11300
H4964       H  0.34996810  0.65539230  0.77383371     0.11200
H4965       H  0.37947459  0.66351888  0.74578138     0.11400
H4966       H  0.38446043  0.68372057  0.75710902     0.10200
C4967       C  0.27036920  0.65292533  0.64657462    -0.03600
C4968       C  0.27977200  0.66141147  0.65129652    -0.09400
C4969       C  0.28602163  0.65892561  0.66295460    -0.17000
C4970       C  0.28295946  0.64794807  0.67010577     0.25100
C4971       C  0.27348870  0.63951363  0.66556526    -0.18700
C4972       C  0.26722855  0.64197673  0.65386206    -0.07600
C4973       C  0.29008365  0.64507327  0.68168600    -0.14000
C4974       C  0.29704242  0.64282152  0.69072269    -0.13800
C4975       C  0.30656983  0.64025744  0.70048919     0.25000
C4976       C  0.30376712  0.63243706  0.71112059    -0.19200
C4977       C  0.31342069  0.62931894  0.72001304    -0.07600
C4978       C  0.32598272  0.63397018  0.71831804    -0.03700
C4979       C  0.32860001  0.64206152  0.70779399    -0.09000
C4980       C  0.31897575  0.64516447  0.69896428    -0.16700
H4981       H  0.28242320  0.66990415  0.64589186     0.11500
H4982       H  0.29338241  0.66548595  0.66630333     0.10800
H4983       H  0.27107080  0.63094917  0.67097371     0.10700
H4984       H  0.26002331  0.63528001  0.65046628     0.11200
H4985       H  0.29420044  0.62856524  0.71240678     0.11300
H4986       H  0.31113559  0.62308523  0.72803743     0.11200
H4987       H  0.33816491  0.64582039  0.70624196     0.11400
H4988       H  0.32128464  0.65121021  0.69078773     0.10200
C4989       C  0.38214868  0.57640185  0.52495596    -0.03600
C4990       C  0.39026852  0.57852908  0.53556480    -0.09400
C4991       C  0.39256770  0.56878851  0.54449616    -0.17000
C4992       C  0.38681647  0.55673946  0.54299713     0.25100
C4993       C  0.37885363  0.55441740  0.53234986    -0.18700
C4994       C  0.37652925  0.56420651  0.52334940    -0.07600
C4995       C  0.38897252  0.54704937  0.55268280    -0.14000
C4996       C  0.39141619  0.54008113  0.56164993    -0.13800
C4997       C  0.39498235  0.53309157  0.57309765     0.25000
C4998       C  0.40609993  0.53660283  0.57980529    -0.19200
C4999       C  0.40930689  0.53046045  0.59133156    -0.07600
C5000       C  0.40139231  0.52074249  0.59636892    -0.03700
C5001       C  0.39033291  0.51711200  0.58949497    -0.09000
C5002       C  0.38715208  0.52325968  0.57791484    -0.16700
H5003       H  0.39471127  0.58781932  0.53708926     0.11500
H5004       H  0.39872623  0.57071727  0.55268947     0.10800
H5005       H  0.37433150  0.54512460  0.53109400     0.10700
H5006       H  0.37019978  0.56232075  0.51529358     0.11200
H5007       H  0.41220724  0.54423221  0.57621666     0.11300
H5008       H  0.41788314  0.53346065  0.59640539     0.11200
H5009       H  0.38409629  0.50962075  0.59312871     0.11400
H5010       H  0.37850669  0.52047539  0.57282663     0.10200
C5011       C  0.44080165  0.48070123  0.62053823    -0.03600
C5012       C  0.43862927  0.47122549  0.61111786    -0.09400
C5013       C  0.44809389  0.46218959  0.60822485    -0.17000
C5014       C  0.45985687  0.46246150  0.61470607     0.25100
C5015       C  0.46220203  0.47198204  0.62397181    -0.18700
C5016       C  0.45273366  0.48109966  0.62684656    -0.07600
C5017       C  0.46926574  0.45269185  0.61202322    -0.14000
C5018       C  0.47639911  0.44392696  0.60948613    -0.13800
C5019       C  0.48402443  0.43284770  0.60626741     0.25000
C5020       C  0.48226633  0.42671524  0.59438820    -0.19200
C5021       C  0.48889266  0.41538100  0.59160089    -0.07600
C5022       C  0.49736180  0.41002944  0.60067944    -0.03700
C5023       C  0.49935699  0.41643032  0.61243914    -0.09000
C5024       C  0.49268706  0.42776136  0.61522469    -0.16700
H5025       H  0.42953368  0.47068549  0.60609893     0.11500
H5026       H  0.44616153  0.45486511  0.60105032     0.10800
H5027       H  0.47126176  0.47225134  0.62908378     0.10700
H5028       H  0.45462073  0.48825081  0.63419620     0.11200
H5029       H  0.47557829  0.43054691  0.58738810     0.11300
H5030       H  0.48720992  0.41068343  0.58244096     0.11200
H5031       H  0.50583270  0.41251885  0.61959032     0.11400
H5032       H  0.49409486  0.43241402  0.62446832     0.10200
C5033       C  0.37506031  0.59874007  0.71638894    -0.03600
C5034       C  0.36883963  0.58751924  0.71212456    -0.09400
C5035       C  0.37499967  0.57902857  0.70372069    -0.17000
C5036       C  0.38748362  0.58157432  0.69945222     0.25100
C5037       C  0.39379208  0.59270879  0.70367704    -0.18700
C5038       C  0.38761321  0.60125714  0.71209314    -0.07600
C5039       C  0.39354639  0.57280005  0.69054592    -0.14000
C5040       C  0.39736725  0.56493852  0.68287345    -0.13800
C5041       C  0.40021798  0.55503945  0.67354043     0.25000
C5042       C  0.41290061  0.55173433  0.67046903    -0.19200
C5043       C  0.41538238  0.54187290  0.66156891    -0.07600
C5044       C  0.40518899  0.53524894  0.65564556    -0.03700
C5045       C  0.39252059  0.53873189  0.65872747    -0.09000
C5046       C  0.39007372  0.54851900  0.66759972    -0.16700
H5047       H  0.35917688  0.58531160  0.71525639     0.11500
H5048       H  0.36999096  0.57047968  0.70050867     0.10800
H5049       H  0.40344829  0.59480440  0.70043801     0.10700
H5050       H  0.39264589  0.60980498  0.71525313     0.11200
H5051       H  0.42084712  0.55669925  0.67500666     0.11300
H5052       H  0.42522835  0.53936777  0.65939969     0.11200
H5053       H  0.38446230  0.53378303  0.65438324     0.11400
H5054       H  0.38022519  0.55094755  0.66989830     0.10200
C5055       C  0.40286722  0.49598082  0.89520597    -0.03600
C5056       C  0.39118204  0.49813662  0.90163497    -0.09400
C5057       C  0.38811294  0.49121921  0.91279718    -0.17000
C5058       C  0.39669034  0.48208225  0.91767875     0.25100
C5059       C  0.40832763  0.47987719  0.91131495    -0.18700
C5060       C  0.41140612  0.48677023  0.90016577    -0.07600
C5061       C  0.39358255  0.47480435  0.92909337    -0.14000
C5062       C  0.39152115  0.46807999  0.93834734    -0.13800
C5063       C  0.38959904  0.45906529  0.94872390     0.25000
C5064       C  0.39597139  0.44724723  0.94840425    -0.19200
C5065       C  0.39355979  0.43800650  0.95784668    -0.07600
C5066       C  0.38471341  0.44044280  0.96777665    -0.03700
C5067       C  0.37868024  0.45251084  0.96834272    -0.09000
C5068       C  0.38109417  0.46176715  0.95883230    -0.16700
H5069       H  0.38438797  0.50511318  0.89799326     0.11500
H5070       H  0.37904723  0.49296916  0.91758693     0.10800
H5071       H  0.41501615  0.47279001  0.91495228     0.10700
H5072       H  0.42044079  0.48484629  0.89539348     0.11200
H5073       H  0.40260190  0.44505002  0.94066731     0.11300
H5074       H  0.39837791  0.42881772  0.95717799     0.11200
H5075       H  0.37181773  0.45463021  0.97587755     0.11400
H5076       H  0.37612129  0.47089789  0.95920525     0.10200
C5077       C  0.49702715  0.61124343  0.89104013    -0.03600
C5078       C  0.49898726  0.60505596  0.87915037    -0.09400
C5079       C  0.49221013  0.59381635  0.87610042    -0.17000
C5080       C  0.48342103  0.58862395  0.88489473     0.25100
C5081       C  0.48159405  0.59463446  0.89682636    -0.18700
C5082       C  0.48833728  0.60585162  0.89988382    -0.07600
C5083       C  0.47580503  0.57751613  0.88151642    -0.14000
C5084       C  0.46869238  0.56870253  0.87892092    -0.13800
C5085       C  0.45929631  0.55886083  0.87615786     0.25000
C5086       C  0.44668975  0.56039928  0.88051450    -0.19200
C5087       C  0.43740541  0.55109611  0.87777182    -0.07600
C5088       C  0.44055498  0.54006755  0.87059236    -0.03700
C5089       C  0.45324543  0.53854197  0.86623738    -0.09000
C5090       C  0.46256694  0.54788850  0.86902828    -0.16700
H5091       H  0.50559072  0.60901209  0.87214276     0.11500
H5092       H  0.49367986  0.58929145  0.86681187     0.10800
H5093       H  0.47479429  0.59075926  0.90370416     0.10700
H5094       H  0.48660803  0.61040821  0.90910326     0.11200
H5095       H  0.44400446  0.56884783  0.88599321     0.11300
H5096       H  0.42770743  0.55260470  0.88118784     0.11200
H5097       H  0.45593248  0.53018546  0.86063947     0.11400
H5098       H  0.47228803  0.54659314  0.86557065     0.10200
C5099       C  0.36100165  0.59997971  0.77396878    -0.03600
C5100       C  0.35118398  0.59208890  0.77885834    -0.09400
C5101       C  0.35365567  0.58370132  0.78914551    -0.17000
C5102       C  0.36592796  0.58319378  0.79466530     0.25100
C5103       C  0.37563330  0.59120912  0.78998092    -0.18700
C5104       C  0.37320491  0.59953139  0.77973176    -0.07600
C5105       C  0.36892823  0.57416068  0.80475502    -0.14000
C5106       C  0.37290205  0.56667332  0.81268853    -0.13800
C5107       C  0.37916779  0.55781083  0.82131020     0.25000
C5108       C  0.39114323  0.55278524  0.81790831    -0.19200
C5109       C  0.39744127  0.54424011  0.82611283    -0.07600
C5110       C  0.39186583  0.54059119  0.83789079    -0.03700
C5111       C  0.37984677  0.54569394  0.84130585    -0.09000
C5112       C  0.37352989  0.55427016  0.83304422    -0.16700
H5113       H  0.34170811  0.59222951  0.77458515     0.11500
H5114       H  0.34607262  0.57750479  0.79265848     0.10800
H5115       H  0.38517149  0.59088736  0.79413415     0.10700
H5116       H  0.38095439  0.60550141  0.77620129     0.11200
H5117       H  0.39562939  0.55547812  0.80888622     0.11300
H5118       H  0.40669068  0.54048362  0.82322213     0.11200
H5119       H  0.37534058  0.54303876  0.85031872     0.11400
H5120       H  0.36427716  0.55812758  0.83580142     0.10200
C5121       C  0.36552508  0.35956248  0.73413729    -0.03600
C5122       C  0.35640410  0.35400054  0.72582737    -0.09400
C5123       C  0.35934104  0.34287702  0.71883224    -0.17000
C5124       C  0.37143598  0.33713933  0.71999943     0.25100
C5125       C  0.38050277  0.34249090  0.72842240    -0.18700
C5126       C  0.37756147  0.35360741  0.73547326    -0.07600
C5127       C  0.37465209  0.32611495  0.71214011    -0.14000
C5128       C  0.37706219  0.31730242  0.70492338    -0.13800
C5129       C  0.37953502  0.30736872  0.69548987     0.25000
C5130       C  0.38815765  0.29735883  0.69808296    -0.19200
C5131       C  0.39076800  0.28803745  0.68866025    -0.07600
C5132       C  0.38482160  0.28866955  0.67650714    -0.03700
C5133       C  0.37605765  0.29864630  0.67406867    -0.09000
C5134       C  0.37343808  0.30789702  0.68348336    -0.16700
H5135       H  0.34705038  0.35834677  0.72460100     0.11500
H5136       H  0.35223328  0.33886692  0.71234808     0.10800
H5137       H  0.38991323  0.33818654  0.72939449     0.10700
H5138       H  0.38479071  0.35769169  0.74176468     0.11200
H5139       H  0.39296942  0.29683812  0.70732493     0.11300
H5140       H  0.39760371  0.28050518  0.69078028     0.11200
H5141       H  0.37133121  0.29939937  0.66480790     0.11400
H5142       H  0.36675181  0.31557046  0.68133095     0.10200
C5143       C  0.32644811  0.38497965  0.77519915    -0.03600
C5144       C  0.32739216  0.37454324  0.78374282    -0.09400
C5145       C  0.31752461  0.37189403  0.79249498    -0.17000
C5146       C  0.30657330  0.37966820  0.79295334     0.25100
C5147       C  0.30540134  0.38991854  0.78425929    -0.18700
C5148       C  0.31524847  0.39252360  0.77539067    -0.07600
C5149       C  0.29698831  0.37741313  0.80281647    -0.14000
C5150       C  0.28989572  0.37511114  0.81177610    -0.13800
C5151       C  0.28250551  0.37180214  0.82313198     0.25000
C5152       C  0.28425663  0.35980484  0.82897521    -0.19200
C5153       C  0.27784943  0.35677006  0.84043441    -0.07600
C5154       C  0.26953919  0.36568633  0.84626340    -0.03700
C5155       C  0.26759249  0.37763017  0.84021978    -0.09000
C5156       C  0.27406511  0.38067634  0.82875261    -0.16700
H5157       H  0.33585240  0.36851340  0.78377411     0.11500
H5158       H  0.31857296  0.36391591  0.79911926     0.10800
H5159       H  0.29700567  0.39604041  0.78449684     0.10700
H5160       H  0.31426892  0.40064022  0.76894671     0.11200
H5161       H  0.29076252  0.35284489  0.82477752     0.11300
H5162       H  0.27952144  0.34748412  0.84482034     0.11200
H5163       H  0.26126064  0.38469563  0.84447943     0.11400
H5164       H  0.27263463  0.39001559  0.82438868     0.10200
C5165       C  0.36372456  0.41781593  0.72035968    -0.03600
C5166       C  0.35427692  0.42626709  0.71571161    -0.09400
C5167       C  0.35716269  0.43494964  0.70578821    -0.17000
C5168       C  0.36948880  0.43521752  0.70038209     0.25100
C5169       C  0.37886919  0.42673612  0.70489483    -0.18700
C5170       C  0.37602930  0.41811891  0.71480382    -0.07600
C5171       C  0.37276535  0.44431031  0.69042000    -0.14000
C5172       C  0.37659005  0.45175665  0.68236487    -0.13800
C5173       C  0.38228286  0.46055160  0.67326905     0.25000
C5174       C  0.37602063  0.46363730  0.66172558    -0.19200
C5175       C  0.38169908  0.47218431  0.65298332    -0.07600
C5176       C  0.39369631  0.47773861  0.65571471    -0.03700
C5177       C  0.39993439  0.47451770  0.66728850    -0.09000
C5178       C  0.39426815  0.46598640  0.67598030    -0.16700
H5179       H  0.34475650  0.42630686  0.71988445     0.11500
H5180       H  0.34983293  0.44151179  0.70242078     0.10800
H5181       H  0.38844541  0.42686461  0.70082941     0.10700
H5182       H  0.38351696  0.41175810  0.71819631     0.11200
H5183       H  0.36675680  0.45946611  0.65949917     0.11300
H5184       H  0.37668390  0.47450827  0.64414403     0.11200
H5185       H  0.40918782  0.47862783  0.66965408     0.11400
H5186       H  0.39923807  0.46364616  0.68484781     0.10200
C5187       C  0.37650766  0.41922112  0.77665848    -0.03600
C5188       C  0.37060865  0.43106713  0.77938527    -0.09400
C5189       C  0.37668197  0.44012353  0.78721336    -0.17000
C5190       C  0.38876469  0.43753690  0.79244756     0.25100
C5191       C  0.39481570  0.42581730  0.78970491    -0.18700
C5192       C  0.38871631  0.41668767  0.78183681    -0.07600
C5193       C  0.39452871  0.44678564  0.80103981    -0.14000
C5194       C  0.39806572  0.45488809  0.80858305    -0.13800
C5195       C  0.40084563  0.46476550  0.81793334     0.25000
C5196       C  0.41340883  0.46919139  0.81983073    -0.19200
C5197       C  0.41590266  0.47889721  0.82887393    -0.07600
C5198       C  0.40583376  0.48427737  0.83608945    -0.03700
C5199       C  0.39327050  0.47970642  0.83416090    -0.09000
C5200       C  0.39080864  0.47003611  0.82515384    -0.16700
H5201       H  0.36123661  0.43333503  0.77550334     0.11500
H5202       H  0.37187796  0.44912488  0.78928389     0.10800
H5203       H  0.40416771  0.42370164  0.79372266     0.10700
H5204       H  0.39351656  0.40768327  0.77981653     0.11200
H5205       H  0.42125728  0.46519217  0.81428186     0.11300
H5206       H  0.42565183  0.48227561  0.83013132     0.11200
H5207       H  0.38530750  0.48367794  0.83954408     0.11400
H5208       H  0.38105081  0.46671238  0.82377620     0.10200
C5209       C  0.90740757  0.40259564  0.48388046    -0.03600
C5210       C  0.91539357  0.39245064  0.48786137    -0.09400
C5211       C  0.92694158  0.38995022  0.48135911    -0.17000
C5212       C  0.93058258  0.39752877  0.47079805     0.25100
C5213       C  0.92265904  0.40762005  0.46683714    -0.18700
C5214       C  0.91119776  0.41015593  0.47332601    -0.07600
C5215       C  0.94219937  0.39488144  0.46368102    -0.14000
C5216       C  0.95138620  0.39313048  0.45678708    -0.13800
C5217       C  0.96160336  0.39118868  0.44757876     0.25000
C5218       C  0.96089144  0.39700473  0.43543547    -0.19200
C5219       C  0.97016193  0.39435434  0.42605270    -0.07600
C5220       C  0.98030750  0.38583560  0.42868222    -0.03700
C5221       C  0.98123071  0.38039664  0.44104508    -0.09000
C5222       C  0.97191183  0.38303443  0.45042022    -0.16700
H5223       H  0.91271771  0.38648162  0.49596572     0.11500
H5224       H  0.93296655  0.38208233  0.48450703     0.10800
H5225       H  0.92530871  0.41350887  0.45864813     0.10700
H5226       H  0.90522903  0.41799286  0.46999211     0.11200
H5227       H  0.95299043  0.40334808  0.43310568     0.11300
H5228       H  0.96920464  0.39871815  0.41663786     0.11200
H5229       H  0.98892631  0.37379437  0.44333388     0.11400
H5230       H  0.97258427  0.37847268  0.45977940     0.10200
C5231       C  0.88279036  0.44091394  0.52566209    -0.03600
C5232       C  0.87649885  0.45286107  0.52533389    -0.09400
C5233       C  0.87950646  0.46240552  0.53441805    -0.17000
C5234       C  0.88885888  0.46011852  0.54386762     0.25100
C5235       C  0.89527125  0.44832093  0.54407315    -0.18700
C5236       C  0.89226400  0.43879787  0.53507337    -0.07600
C5237       C  0.89163416  0.46953959  0.55372273    -0.14000
C5238       C  0.89420304  0.47654653  0.56266382    -0.13800
C5239       C  0.89737581  0.48399977  0.57398987     0.25000
C5240       C  0.90939316  0.48256847  0.57986415    -0.19200
C5241       C  0.91222012  0.48913028  0.59130649    -0.07600
C5242       C  0.90306613  0.49724298  0.59705323    -0.03700
C5243       C  0.89109324  0.49879734  0.59099053    -0.09000
C5244       C  0.88826900  0.49219772  0.57955251    -0.16700
H5245       H  0.86912598  0.45472649  0.51823181     0.11500
H5246       H  0.87442936  0.47147929  0.53417654     0.10800
H5247       H  0.90249891  0.44639983  0.55133444     0.10700
H5248       H  0.89727109  0.42970176  0.53557946     0.11200
H5249       H  0.91651503  0.47622874  0.57570670     0.11300
H5250       H  0.92152864  0.48774598  0.59573216     0.11200
H5251       H  0.88384506  0.50495795  0.59519495     0.11400
H5252       H  0.87891077  0.49334647  0.57515071     0.10200
C5253       C  0.82704314  0.38443015  0.71903348    -0.03600
C5254       C  0.82970252  0.37748355  0.70772039    -0.09400
C5255       C  0.82004482  0.37501523  0.69872550    -0.17000
C5256       C  0.80754302  0.37939793  0.70086514     0.25100
C5257       C  0.80466671  0.38595309  0.71232399    -0.18700
C5258       C  0.81437206  0.38845781  0.72138029    -0.07600
C5259       C  0.79797223  0.37745059  0.69097336    -0.14000
C5260       C  0.79106187  0.37534376  0.68184686    -0.13800
C5261       C  0.78395481  0.37206812  0.67033732     0.25000
C5262       C  0.77493422  0.38057670  0.66510024    -0.19200
C5263       C  0.76847285  0.37743942  0.65365833    -0.07600
C5264       C  0.77098408  0.36576382  0.64730104    -0.03700
C5265       C  0.77998219  0.35725499  0.65268617    -0.09000
C5266       C  0.78641412  0.36039960  0.66409390    -0.16700
H5267       H  0.83934659  0.37421024  0.70565072     0.11500
H5268       H  0.82240218  0.36989400  0.68994228     0.10800
H5269       H  0.79500864  0.38934276  0.71413911     0.10700
H5270       H  0.81204338  0.39377346  0.73003702     0.11200
H5271       H  0.77298722  0.38967285  0.66978034     0.11300
H5272       H  0.76163500  0.38420336  0.64970571     0.11200
H5273       H  0.78217004  0.34822314  0.64799599     0.11400
H5274       H  0.79342165  0.35376173  0.66798528     0.10200
C5275       C  0.72953963  0.32743414  0.62008507    -0.03600
C5276       C  0.73091709  0.31508115  0.61475607    -0.09400
C5277       C  0.72155469  0.30563169  0.61695332    -0.17000
C5278       C  0.71076126  0.30842900  0.62451443     0.25100
C5279       C  0.70945860  0.32065006  0.62997402    -0.18700
C5280       C  0.71874791  0.33007339  0.62777620    -0.07600
C5281       C  0.70082083  0.29898047  0.62656819    -0.14000
C5282       C  0.69187415  0.29192210  0.62876444    -0.13800
C5283       C  0.68059665  0.28454118  0.63201253     0.25000
C5284       C  0.67398799  0.28725483  0.64342967    -0.19200
C5285       C  0.66266674  0.28069812  0.64640510    -0.07600
C5286       C  0.65774517  0.27132108  0.63798432    -0.03700
C5287       C  0.66452020  0.26847732  0.62661204    -0.09000
C5288       C  0.67588755  0.27506349  0.62364717    -0.16700
H5289       H  0.73910362  0.31279946  0.60875582     0.11500
H5290       H  0.72266970  0.29620562  0.61266330     0.10800
H5291       H  0.70117217  0.32294959  0.63584334     0.10700
H5292       H  0.71740748  0.33948878  0.63200856     0.11200
H5293       H  0.67749263  0.29458786  0.64996260     0.11300
H5294       H  0.65765545  0.28311832  0.65521884     0.11200
H5295       H  0.66094455  0.26131280  0.61994716     0.11400
H5296       H  0.68089319  0.27289406  0.61476111     0.10200
C5297       C  0.84932590  0.39192230  0.52772384    -0.03600
C5298       C  0.85317783  0.38062403  0.53404822    -0.09400
C5299       C  0.84512326  0.37480840  0.54315655    -0.17000
C5300       C  0.83314452  0.38021632  0.54599785     0.25100
C5301       C  0.82922031  0.39138533  0.53963469    -0.18700
C5302       C  0.83723722  0.39720303  0.53057287    -0.07600
C5303       C  0.82489305  0.37459462  0.55560520    -0.14000
C5304       C  0.81734985  0.37092563  0.56362084    -0.13800
C5305       C  0.80760282  0.36788660  0.57298144     0.25000
C5306       C  0.80236396  0.37774795  0.58047728    -0.19200
C5307       C  0.79218442  0.37519720  0.58883845    -0.07600
C5308       C  0.78707916  0.36272432  0.58982776    -0.03700
C5309       C  0.79261182  0.35276981  0.58254998    -0.09000
C5310       C  0.80281610  0.35535674  0.57414440    -0.16700
H5311       H  0.86244489  0.37636327  0.53203980     0.11500
H5312       H  0.84826721  0.36617379  0.54803778     0.10800
H5313       H  0.81998089  0.39566897  0.54175460     0.10700
H5314       H  0.83399920  0.40588700  0.52585212     0.11200
H5315       H  0.80596247  0.38747782  0.57965152     0.11300
H5316       H  0.78814225  0.38305598  0.59433985     0.11200
H5317       H  0.78886212  0.34308670  0.58313013     0.11400
H5318       H  0.80678537  0.34764770  0.56836215     0.10200
C5319       C  0.53753481  0.38349548  0.56232071    -0.03600
C5320       C  0.53469049  0.37950267  0.54968646    -0.09400
C5321       C  0.54349309  0.38163479  0.53969844    -0.17000
C5322       C  0.55520280  0.38773966  0.54227260     0.25100
C5323       C  0.55796999  0.39191262  0.55478469    -0.18700
C5324       C  0.54920282  0.38984245  0.56472863    -0.07600
C5325       C  0.56463796  0.38960451  0.53231414    -0.14000
C5326       C  0.57356828  0.39180231  0.52526204    -0.13800
C5327       C  0.58515148  0.39531887  0.51857789     0.25000
C5328       C  0.59127372  0.40684479  0.52180083    -0.19200
C5329       C  0.60306635  0.40999234  0.51627191    -0.07600
C5330       C  0.60893197  0.40163219  0.50742718    -0.03700
C5331       C  0.60262429  0.39016792  0.50400551    -0.09000
C5332       C  0.59078979  0.38701485  0.50958519    -0.16700
H5333       H  0.52575815  0.37461662  0.54757416     0.11500
H5334       H  0.54123922  0.37839348  0.53003260     0.10800
H5335       H  0.56699296  0.39664433  0.55689202     0.10700
H5336       H  0.55167441  0.39300285  0.57435912     0.11200
H5337       H  0.58703651  0.41330840  0.52880192     0.11300
H5338       H  0.60768035  0.41889756  0.51906119     0.11200
H5339       H  0.60692271  0.38357261  0.49718755     0.11400
H5340       H  0.58616981  0.37803153  0.50706873     0.10200
C5341       C  0.63468593  0.44088506  0.46830108    -0.03600
C5342       C  0.62897928  0.43778304  0.45641512    -0.09400
C5343       C  0.62622865  0.44735811  0.44743576    -0.17000
C5344       C  0.62909275  0.46019411  0.45018646     0.25100
C5345       C  0.63469420  0.46342565  0.46203827    -0.18700
C5346       C  0.63749575  0.45380971  0.47106902    -0.07600
C5347       C  0.62637126  0.46987879  0.44066521    -0.14000
C5348       C  0.62385704  0.47711700  0.43195015    -0.13800
C5349       C  0.62064873  0.48471847  0.42081362     0.25000
C5350       C  0.63001140  0.49226145  0.41476947    -0.19200
C5351       C  0.62713717  0.49877481  0.40332760    -0.07600
C5352       C  0.61488645  0.49771274  0.39776106    -0.03700
C5353       C  0.60545394  0.49037489  0.40406604    -0.09000
C5354       C  0.60832274  0.48393076  0.41551798    -0.16700
H5355       H  0.62675552  0.42791142  0.45397805     0.11500
H5356       H  0.62192978  0.44472991  0.43829747     0.10800
H5357       H  0.63696597  0.47334420  0.46425822     0.10700
H5358       H  0.64191736  0.45645084  0.48013431     0.11200
H5359       H  0.63960335  0.49288723  0.41874851     0.11300
H5360       H  0.63457814  0.50435387  0.39866319     0.11200
H5361       H  0.59591493  0.48944067  0.40003061     0.11400
H5362       H  0.60100676  0.47810234  0.42008556     0.10200
C5363       C  0.66915591  0.40513051  0.52307261    -0.03600
C5364       C  0.67240540  0.39238114  0.52614505    -0.09400
C5365       C  0.68153543  0.38976690  0.53562773    -0.17000
C5366       C  0.68752709  0.39983247  0.54223970     0.25100
C5367       C  0.68434672  0.41257554  0.53928213    -0.18700
C5368       C  0.67522299  0.41522465  0.52971262     0.11600
C5369       C  0.69691186  0.39691105  0.55200942    -0.14000
C5370       C  0.70460154  0.39335076  0.55993535    -0.13800
C5371       C  0.71355579  0.38778052  0.56891823     0.25000
C5372       C  0.71572432  0.39340602  0.58100203    -0.19200
C5373       C  0.72404895  0.38754069  0.58983169    -0.07600
C5374       C  0.73027055  0.37598725  0.58663754    -0.03700
C5375       C  0.72811098  0.37049926  0.57443981    -0.09000
C5376       C  0.71981558  0.37634977  0.56566541    -0.16700
H5377       H  0.66799259  0.38440533  0.52111187     0.11500
H5378       H  0.68394374  0.37987288  0.53778323     0.10800
H5379       H  0.68894194  0.42044742  0.54433366     0.10700
H5380       H  0.67294206  0.42512601  0.52748557     0.11200
H5381       H  0.71090277  0.40224111  0.58363709     0.11300
H5382       H  0.72555627  0.39197785  0.59915121     0.11200
H5383       H  0.73276544  0.36160891  0.57169894     0.11400
H5384       H  0.71818892  0.37188094  0.55637329     0.10200
C5385       C  0.74504969  0.36571972  0.34788812    -0.03600
C5386       C  0.74628541  0.37793235  0.34223559    -0.09400
C5387       C  0.73971699  0.38089035  0.33084552    -0.17000
C5388       C  0.73188359  0.37166804  0.32493926     0.25100
C5389       C  0.73062515  0.35948093  0.33050403    -0.18700
C5390       C  0.73714404  0.35652241  0.34190772    -0.07600
C5391       C  0.72471400  0.37480593  0.31347756    -0.14000
C5392       C  0.71786484  0.37714545  0.30439349    -0.13800
C5393       C  0.70842942  0.37951915  0.29451745     0.25000
C5394       C  0.69573070  0.37576318  0.29667055    -0.19200
C5395       C  0.68630166  0.37829617  0.28747808    -0.07600
C5396       C  0.68940970  0.38467742  0.27595728    -0.03700
C5397       C  0.70221642  0.38832490  0.27374119    -0.09000
C5398       C  0.71169312  0.38573827  0.28298940    -0.16700
H5399       H  0.75223402  0.38523130  0.34668346     0.11500
H5400       H  0.74067488  0.39039360  0.32670162     0.10800
H5401       H  0.72451923  0.35229206  0.32608223     0.10700
H5402       H  0.73597416  0.34705377  0.34605988     0.11200
H5403       H  0.69307589  0.37097323  0.30555135     0.11300
H5404       H  0.67651995  0.37542032  0.28949166     0.11200
H5405       H  0.70485807  0.39327272  0.26496161     0.11400
H5406       H  0.72150211  0.38869797  0.28121350     0.10200
C5407       C  0.78805238  0.32791569  0.37187129    -0.03600
C5408       C  0.78734419  0.31562533  0.37744629    -0.09400
C5409       C  0.79686499  0.30643948  0.37492618    -0.17000
C5410       C  0.80719095  0.30940946  0.36680306     0.25100
C5411       C  0.80778783  0.32153355  0.36099682    -0.18700
C5412       C  0.79830537  0.33071019  0.36350206    -0.07600
C5413       C  0.81737566  0.30022855  0.36464778    -0.14000
C5414       C  0.82630870  0.29310825  0.36256907    -0.13800
C5415       C  0.83740572  0.28539544  0.35941700     0.25000
C5416       C  0.84382556  0.28751934  0.34777628    -0.19200
C5417       C  0.85485295  0.28052084  0.34474417    -0.07600
C5418       C  0.85970120  0.27127570  0.35332840    -0.03700
C5419       C  0.85313871  0.26903571  0.36496268    -0.09000
C5420       C  0.84204402  0.27606710  0.36798415    -0.16700
H5421       H  0.77958612  0.31320997  0.38394694     0.11500
H5422       H  0.79627402  0.29708637  0.37947179     0.10800
H5423       H  0.81569478  0.32397153  0.35468092     0.10700
H5424       H  0.79913345  0.34008475  0.35906519     0.11200
H5425       H  0.84038034  0.29471686  0.34107468     0.11300
H5426       H  0.85970324  0.28249436  0.33573011     0.11200
H5427       H  0.85666203  0.26199205  0.37176446     0.11400
H5428       H  0.83718258  0.27433359  0.37704101     0.10200
C5429       C  0.73192063  0.36281515  0.40610685    -0.03600
C5430       C  0.72739641  0.37544936  0.40768250    -0.09400
C5431       C  0.71741038  0.37810993  0.41622041    -0.17000
C5432       C  0.71175819  0.36820757  0.42332215     0.25100
C5433       C  0.71600402  0.35553573  0.42166555    -0.18700
C5434       C  0.72604810  0.35283911  0.41308143    -0.07600
C5435       C  0.70199233  0.37133239  0.43262110    -0.14000
C5436       C  0.69431140  0.37522091  0.44038748    -0.13800
C5437       C  0.68569493  0.38106927  0.44950415     0.25000
C5438       C  0.68876344  0.39304993  0.45481355    -0.19200
C5439       C  0.68034936  0.39899130  0.46342265    -0.07600
C5440       C  0.66873721  0.39301500  0.46682881    -0.03700
C5441       C  0.66573338  0.38095541  0.46152210    -0.09000
C5442       C  0.67417910  0.37501834  0.45289403    -0.16700
H5443       H  0.73170680  0.38334320  0.40244423     0.11500
H5444       H  0.71422513  0.38794559  0.41742794     0.10800
H5445       H  0.71169121  0.34779371  0.42712859     0.10700
H5446       H  0.72933641  0.34302662  0.41203985     0.11200
H5447       H  0.69763684  0.39783360  0.45224634     0.11300
H5448       H  0.68291703  0.40827151  0.46738118     0.11200
H5449       H  0.65685859  0.37614398  0.46401311     0.11400
H5450       H  0.67170243  0.36574923  0.44882458     0.10200
C5451       C  0.78962526  0.37578706  0.40557675    -0.03600
C5452       C  0.79462307  0.36920301  0.41628389    -0.09400
C5453       C  0.80336084  0.37520435  0.42453681    -0.17000
C5454       C  0.80719463  0.38789043  0.42227101     0.25100
C5455       C  0.80231715  0.39452031  0.41159490    -0.18700
C5456       C  0.79359755  0.38848848  0.40325934    -0.07600
C5457       C  0.81610614  0.39395603  0.43100278    -0.14000
C5458       C  0.82362717  0.39788132  0.43893751    -0.13800
C5459       C  0.83265465  0.40081760  0.44905353     0.25000
C5460       C  0.83459058  0.41345855  0.45333470    -0.19200
C5461       C  0.84300077  0.41594142  0.46361621    -0.07600
C5462       C  0.84950757  0.40577173  0.46969296    -0.03700
C5463       C  0.84762470  0.39318034  0.46516175    -0.09000
C5464       C  0.83927008  0.39073656  0.45495283    -0.16700
H5465       H  0.79178453  0.35939743  0.41828061     0.11500
H5466       H  0.80709514  0.36995016  0.43273316     0.10800
H5467       H  0.80521853  0.40434096  0.40974036     0.10700
H5468       H  0.78987024  0.39378240  0.39509480     0.11200
H5469       H  0.82950165  0.42134722  0.44884729     0.11300
H5470       H  0.84427863  0.42572643  0.46691015     0.11200
H5471       H  0.85249704  0.38514534  0.46962987     0.11400
H5472       H  0.83784378  0.38092233  0.45175847     0.10200
loop_ 
_geom_bond_atom_site_label_1 
_geom_bond_atom_site_label_2 
_geom_bond_distance 
_geom_bond_site_symmetry_2 
_ccdc_geom_bond_type 
In1           O3   2.219       .  S
In1           O4   2.268       .  S
In1          O12   2.240       .  S
In1           O6   2.246       .  S
In1           O8   2.258       .  S
In1           O9   2.263       .  S
In1          O10   2.228       .  S
In1          O13   2.231       .  S
C2            O8   1.266       .  A
C2           O10   1.261       .  A
C2         C5451   1.479       .  S
O3           C11   1.260       .  A
O4           C11   1.267       .  A
C5           O12   1.263       .  A
C5            O6   1.265       .  A
C5         C5385   1.480       .  S
C7            O9   1.267       .  A
C7           O13   1.262       .  A
C7         C5407   1.484       .  S
C11        C5429   1.480       .  S
In14         O16   2.217       .  S
In14         O17   2.264       .  S
In14         O25   2.234       .  S
In14         O19   2.248       .  S
In14         O21   2.243       .  S
In14         O22   2.263       .  S
In14         O23   2.226       .  S
In14         O26   2.220       .  S
C15          O21   1.265       .  A
C15          O23   1.262       .  A
C15        C5440   1.475       .  S
O16          C24   1.260       .  A
O17          C24   1.267       .  A
C18          O25   1.263       .  A
C18          O19   1.263       .  A
C18        C5330   1.477       .  S
C20          O22   1.266       .  A
C20          O26   1.260       .  A
C20        C5363   1.479       .  S
C24        C5341   1.478       .  S
In27         O29   2.222       .  S
In27         O30   2.258       .  S
In27         O38   2.240       .  S
In27         O32   2.255       .  S
In27         O34   2.259       .  S
In27         O35   2.267       .  S
In27         O36   2.225       .  S
In27         O39   2.225       .  S
C28          O34   1.266       .  A
C28          O36   1.261       .  A
C28        C5374   1.479       .  S
O29          C37   1.261       .  A
O30          C37   1.267       .  A
C31          O38   1.263       .  A
C31          O32   1.265       .  A
C31        C5264   1.483       .  S
C33          O35   1.266       .  A
C33          O39   1.261       .  A
C33        C5275   1.481       .  S
C37        C5308   1.478       .  S
In40         O42   2.227       .  S
In40         O43   2.265       .  S
In40         O51   2.231       .  S
In40         O45   2.262       .  S
In40         O47   2.260       .  S
In40         O48   2.265       .  S
In40         O49   2.229       .  S
In40         O52   2.219       .  S
C41          O47   1.265       .  A
C41          O49   1.261       .  A
C41        C5297   1.479       .  S
O42          C50   1.260       .  A
O43          C50   1.265       .  A
C44          O51   1.262       .  A
C44          O45   1.265       .  A
C44        C5209   1.482       .  S
C46          O48   1.266       .  A
C46          O52   1.261       .  A
C46        C5462   1.480       .  S
C50        C5231   1.481       .  S
In53         O55   2.228       .  S
In53         O56   2.263       .  S
In53         O64   2.239       .  S
In53         O58   2.257       .  S
In53         O60   2.273       .  S
In53         O61   2.264       .  S
In53         O62   2.220       .  S
In53         O65   2.243       .  S
C54          O60   1.266       .  A
C54          O62   1.259       .  A
C54        C5187   1.481       .  S
O55          C63   1.261       .  A
O56          C63   1.266       .  A
C57          O64   1.263       .  A
C57          O58   1.266       .  A
C57        C5121   1.484       .  S
C59          O61   1.265       .  A
C59          O65   1.263       .  A
C59        C5143   1.485       .  S
C63        C5165   1.481       .  S
In66         O68   2.229       .  S
In66         O69   2.269       .  S
In66         O77   2.245       .  S
In66         O71   2.250       .  S
In66         O73   2.256       .  S
In66         O74   2.262       .  S
In66         O75   2.225       .  S
In66         O78   2.223       .  S
C67          O73   1.266       .  A
C67          O75   1.261       .  A
C67        C5110   1.479       .  S
O68          C76   1.261       .  A
O69          C76   1.266       .  A
C70          O77   1.263       .  A
C70          O71   1.264       .  A
C70        C5055   1.482       .  S
C72          O74   1.267       .  A
C72          O78   1.261       .  A
C72        C5198   1.480       .  S
C76        C5088   1.483       .  S
In79         O81   2.224       .  S
In79         O82   2.259       .  S
In79         O90   2.234       .  S
In79         O84   2.253       .  S
In79         O86   2.257       .  S
In79         O87   2.264       .  S
In79         O88   2.228       .  S
In79         O91   2.226       .  S
C80          O86   1.266       .  A
C80          O88   1.261       .  A
C80        C5176   1.479       .  S
O81          C89   1.261       .  A
O82          C89   1.266       .  A
C83          O90   1.263       .  A
C83          O84   1.265       .  A
C83        C5000   1.480       .  S
C85          O87   1.266       .  A
C85          O91   1.261       .  A
C85        C5044   1.482       .  S
C89        C5011   1.478       .  S
In92         O94   2.224       .  S
In92         O95   2.263       .  S
In92        O103   2.230       .  S
In92         O97   2.256       .  S
In92         O99   2.261       .  S
In92        O100   2.263       .  S
In92        O101   2.234       .  S
In92        O104   2.227       .  S
C93          O99   1.265       .  A
C93         O101   1.261       .  A
C93        C5033   1.482       .  S
O94         C102   1.261       .  A
O95         C102   1.266       .  A
C96         O103   1.262       .  A
C96          O97   1.265       .  A
C96        C4956   1.479       .  S
C98         O100   1.266       .  A
C98         O104   1.261       .  A
C98        C4978   1.481       .  S
C102       C5099   1.480       .  S
In105       O107   2.232       .  S
In105       O108   2.263       .  S
In105       O116   2.231       .  S
In105       O110   2.259       .  S
In105       O112   2.254       .  S
In105       O113   2.263       .  S
In105       O114   2.223       .  S
In105       O117   2.229       .  S
C106        O112   1.265       .  A
C106        O114   1.261       .  A
C106       C4923   1.477       .  S
O107        C115   1.261       .  A
O108        C115   1.265       .  A
C109        O116   1.262       .  A
C109        O110   1.264       .  A
C109       C4857   1.480       .  S
C111        O113   1.266       .  A
C111        O117   1.261       .  A
C111       C4901   1.481       .  S
C115       C4879   1.482       .  S
In118       O120   2.228       .  S
In118       O121   2.264       .  S
In118       O129   2.236       .  S
In118       O123   2.267       .  S
In118       O125   2.266       .  S
In118       O126   2.261       .  S
In118       O127   2.230       .  S
In118       O130   2.237       .  S
C119        O125   1.266       .  A
C119        O127   1.260       .  A
C119       C4912   1.481       .  S
O120        C128   1.261       .  A
O121        C128   1.265       .  A
C122        O129   1.262       .  A
C122        O123   1.266       .  A
C122       C4791   1.485       .  S
C124        O126   1.265       .  A
C124        O130   1.262       .  A
C124       C4824   1.481       .  S
C128       C4846   1.480       .  S
In131       O133   2.226       .  S
In131       O134   2.271       .  S
In131       O142   2.239       .  S
In131       O136   2.255       .  S
In131       O138   2.257       .  S
In131       O139   2.263       .  S
In131       O140   2.232       .  S
In131       O143   2.217       .  S
C132        O138   1.265       .  A
C132        O140   1.261       .  A
C132       C4835   1.479       .  S
O133        C141   1.260       .  A
O134        C141   1.266       .  A
C135        O142   1.263       .  A
C135        O136   1.264       .  A
C135       C4725   1.482       .  S
C137        O139   1.267       .  A
C137        O143   1.261       .  A
C137       C4780   1.479       .  S
C141       C4747   1.482       .  S
In144       O146   2.220       .  S
In144       O147   2.264       .  S
In144       O155   2.236       .  S
In144       O149   2.255       .  S
In144       O151   2.252       .  S
In144       O152   2.259       .  S
In144       O153   2.236       .  S
In144       O156   2.220       .  S
C145        O151   1.265       .  A
C145        O153   1.262       .  A
C145       C4769   1.479       .  S
O146        C154   1.260       .  A
O147        C154   1.267       .  A
C148        O155   1.262       .  A
C148        O149   1.265       .  A
C148       C4681   1.481       .  S
C150        O152   1.267       .  A
C150        O156   1.261       .  A
C150       C4703   1.478       .  S
C154       C4934   1.479       .  S
In157       O159   2.220       .  S
In157       O160   2.256       .  S
In157       O168   2.234       .  S
In157       O162   2.256       .  S
In157       O164   2.255       .  S
In157       O165   2.263       .  S
In157       O166   2.233       .  S
In157       O169   2.224       .  S
C158        O164   1.266       .  A
C158        O166   1.261       .  A
C158       C4670   1.480       .  S
O159        C167   1.261       .  A
O160        C167   1.267       .  A
C161        O168   1.262       .  A
C161        O162   1.265       .  A
C161       C4593   1.481       .  S
C163        O165   1.266       .  A
C163        O169   1.261       .  A
C163       C4637   1.480       .  S
C167       C4626   1.477       .  S
In170       O172   2.225       .  S
In170       O173   2.262       .  S
In170       O181   2.238       .  S
In170       O175   2.258       .  S
In170       O177   2.267   1_455  S
In170       O178   2.258   1_455  S
In170       O179   2.232   1_455  S
In170       O182   2.233   1_455  S
C171        O177   1.265       .  A
C171        O179   1.260       .  A
C171       C4582   1.482       .  S
O172        C180   1.261       .  A
O173        C180   1.265       .  A
C174        O181   1.262       .  A
C174        O175   1.265       .  A
C174       C4527   1.482       .  S
C176        O178   1.264       .  A
C176        O182   1.261       .  A
C176       C4560   1.479       .  S
C180       C4659   1.479       .  S
In183       O185   2.228       .  S
In183       O186   2.265       .  S
In183       O194   2.238       .  S
In183       O188   2.259       .  S
In183       O190   2.262       .  S
In183       O191   2.259       .  S
In183       O192   2.234       .  S
In183       O195   2.233       .  S
C184        O190   1.264       .  A
C184        O192   1.260       .  A
C184       C4516   1.480       .  S
O185        C193   1.260       .  A
O186        C193   1.264       .  A
C187        O194   1.262       .  A
C187        O188   1.264       .  A
C187       C4472   1.482       .  S
C189        O191   1.265       .  A
C189        O195   1.262       .  A
C189       C4571   1.481       .  S
C193       C4494   1.480       .  S
In196       O198   2.222   1_455  S
In196       O199   2.256   1_455  S
In196       O207   2.227       .  S
In196       O201   2.252       .  S
In196       O203   2.258       .  S
In196       O204   2.256       .  S
In196       O205   2.220       .  S
In196       O208   2.228       .  S
C197        O203   1.266       .  A
C197        O205   1.261       .  A
C197       C4648   1.478       .  S
O198        C206   1.261       .  A
O199        C206   1.266       .  A
C200        O207   1.262       .  A
C200        O201   1.266       .  A
C200       C4417   1.477   1_455  S
C202        O204   1.266       .  A
C202        O208   1.262       .  A
C202       C4439   1.481       .  S
C206       C4505   1.478       .  S
In209       O211   2.231       .  S
In209       O212   2.261       .  S
In209       O220   2.235       .  S
In209       O214   2.259       .  S
In209       O216   2.267       .  S
In209       O217   2.269       .  S
In209       O218   2.229       .  S
In209       O221   2.228       .  S
C210        O216   1.266       .  A
C210        O218   1.260       .  A
C210       C4395   1.482       .  S
O211        C219   1.262       .  A
O212        C219   1.266       .  A
C213        O220   1.263       .  A
C213        O214   1.266       .  A
C213       C4351   1.482       .  S
C215        O217   1.266       .  A
C215        O221   1.261       .  A
C215       C4384   1.481       .  S
C219       C5132   1.482       .  S
In222       O224   2.218       .  S
In222       O225   2.255       .  S
In222       O233   2.241       .  S
In222       O227   2.258       .  S
In222       O229   2.259       .  S
In222       O230   2.260       .  S
In222       O231   2.234       .  S
In222       O234   2.223       .  S
C223        O229   1.266       .  A
C223        O231   1.261       .  A
C223       C4373   1.481       .  S
O224        C232   1.260       .  A
O225        C232   1.266       .  A
C226        O233   1.262       .  A
C226        O227   1.265       .  A
C226       C4285   1.484       .  S
C228        O230   1.266       .  A
C228        O234   1.262       .  A
C228       C4307   1.479       .  S
C232       C4340   1.475       .  S
In235       O237   2.231       .  S
In235       O238   2.263       .  S
In235       O246   2.229       .  S
In235       O240   2.252       .  S
In235       O242   2.251       .  S
In235       O243   2.261       .  S
In235       O244   2.224       .  S
In235       O247   2.214       .  S
C236        O242   1.266       .  A
C236        O244   1.261       .  A
C236       C4329   1.476       .  S
O237        C245   1.261       .  A
O238        C245   1.266       .  A
C239        O246   1.263       .  A
C239        O240   1.266       .  A
C239       C5286   1.481       .  S
C241        O243   1.268       .  A
C241        O247   1.261       .  A
C241       C4263   1.478       .  S
C245       C4252   1.482       .  S
In248       O250   2.230       .  S
In248       O251   2.256       .  S
In248       O259   2.230       .  S
In248       O253   2.251       .  S
In248       O255   2.260       .  S
In248       O256   2.256       .  S
In248       O257   2.219       .  S
In248       O260   2.227       .  S
C249        O255   1.267       .  A
C249        O257   1.261       .  A
C249       C4274   1.479       .  S
O250        C258   1.262       .  A
O251        C258   1.266       .  A
C252        O259   1.261       .  A
C252        O253   1.265       .  A
C252       C5022   1.477       .  S
C254        O256   1.265       .  A
C254        O260   1.261       .  A
C254       C5319   1.478       .  S
C258       C4406   1.480       .  S
In261       O263   2.222       .  S
In261       O264   2.260       .  S
In261       O272   2.227       .  S
In261       O266   2.256       .  S
In261       O268   2.259       .  S
In261       O269   2.266       .  S
In261       O270   2.229       .  S
In261       O273   2.220       .  S
C262        O268   1.265       .  A
C262        O270   1.261       .  A
C262       C4230   1.480       .  S
O263        C271   1.261       .  A
O264        C271   1.266       .  A
C265        O272   1.263       .  A
C265        O266   1.265       .  A
C265       C4164   1.479       .  S
C267        O269   1.266       .  A
C267        O273   1.261       .  A
C267       C4197   1.480       .  S
C271       C4175   1.479       .  S
In274       O276   2.226   1_545  S
In274       O277   2.264   1_545  S
In274       O285   2.237       .  S
In274       O279   2.260       .  S
In274       O281   2.260       .  S
In274       O282   2.257       .  S
In274       O283   2.225       .  S
In274       O286   2.233       .  S
C275        O281   1.266       .  A
C275        O283   1.261       .  A
C275       C4208   1.479       .  S
O276        C284   1.261       .  A
O277        C284   1.266       .  A
C278        O285   1.262       .  A
C278        O279   1.265       .  A
C278       C4087   1.483   1_545  S
C280        O282   1.266       .  A
C280        O286   1.262       .  A
C280       C4109   1.481       .  S
C284       C4142   1.481       .  S
In287       O289   2.243       .  S
In287       O290   2.264       .  S
In287       O298   2.230       .  S
In287       O292   2.251       .  S
In287       O294   2.264       .  S
In287       O295   2.264       .  S
In287       O296   2.226       .  S
In287       O299   2.231       .  S
C288        O294   1.266       .  A
C288        O296   1.260       .  A
C288       C4131   1.480       .  S
O289        C297   1.262       .  A
O290        C297   1.266       .  A
C291        O298   1.263       .  A
C291        O292   1.266       .  A
C291       C4714   1.479       .  S
C293        O295   1.267       .  A
C293        O299   1.261       .  A
C293       C4065   1.482       .  S
C297       C4043   1.485       .  S
In300       O302   2.213       .  S
In300       O303   2.273       .  S
In300       O311   2.239       .  S
In300       O305   2.258       .  S
In300       O307   2.258   1_545  S
In300       O308   2.264   1_545  S
In300       O309   2.226   1_545  S
In300       O312   2.229   1_545  S
C301        O307   1.267       .  A
C301        O309   1.262       .  A
C301       C4076   1.481       .  S
O302        C310   1.260       .  A
O303        C310   1.268       .  A
C304        O311   1.262       .  A
C304        O305   1.265       .  A
C304       C4032   1.483       .  S
C306        O308   1.267       .  A
C306        O312   1.262       .  A
C306       C4736   1.483       .  S
C310       C4219   1.481       .  S
In313       O315   2.234       .  S
In313       O316   2.265       .  S
In313       O324   2.234       .  S
In313       O318   2.246       .  S
In313       O320   2.255       .  S
In313       O321   2.272       .  S
In313       O322   2.228       .  S
In313       O325   2.217       .  S
C314        O320   1.265       .  A
C314        O322   1.261       .  A
C314       C3999   1.478       .  S
O315        C323   1.261       .  A
O316        C323   1.266       .  A
C317        O324   1.263       .  A
C317        O318   1.264       .  A
C317       C4318   1.478       .  S
C319        O321   1.267       .  A
C319        O325   1.260       .  A
C319       C3977   1.481       .  S
C323       C4021   1.483       .  S
In326       O328   2.228       .  S
In326       O329   2.264       .  S
In326       O337   2.238       .  S
In326       O331   2.253       .  S
In326       O333   2.265       .  S
In326       O334   2.256       .  S
In326       O335   2.227       .  S
In326       O338   2.224       .  S
C327        O333   1.266       .  A
C327        O335   1.260       .  A
C327       C3988   1.480       .  S
O328        C336   1.260       .  A
O329        C336   1.265       .  A
C330        O337   1.263       .  A
C330        O331   1.265       .  A
C330       C3933   1.481       .  S
C332        O334   1.266       .  A
C332        O338   1.262       .  A
C332       C4362   1.479       .  S
C336       C3966   1.480       .  S
In339       O341   2.232       .  S
In339       O342   2.257       .  S
In339       O350   2.233       .  S
In339       O344   2.262       .  S
In339       O346   2.259       .  S
In339       O347   2.264       .  S
In339       O348   2.229       .  S
In339       O351   2.225       .  S
C340        O346   1.266       .  A
C340        O348   1.261       .  A
C340       C3955   1.479       .  S
O341        C349   1.262       .  A
O342        C349   1.265       .  A
C343        O350   1.261       .  A
C343        O344   1.265       .  A
C343       C3867   1.482       .  S
C345        O347   1.266       .  A
C345        O351   1.261       .  A
C345       C3911   1.479       .  S
C349       C3889   1.480       .  S
In352       O354   2.222       .  S
In352       O355   2.263       .  S
In352       O363   2.235       .  S
In352       O357   2.249       .  S
In352       O359   2.257       .  S
In352       O360   2.252       .  S
In352       O361   2.223       .  S
In352       O364   2.228       .  S
C353        O359   1.265       .  A
C353        O361   1.261       .  A
C353       C3922   1.477       .  S
O354        C362   1.260       .  A
O355        C362   1.265       .  A
C356        O363   1.262       .  A
C356        O357   1.264       .  A
C356       C4186   1.478       .  S
C358        O360   1.265       .  A
C358        O364   1.262       .  A
C358       C3856   1.478       .  S
C362       C4010   1.479       .  S
In365       O367   2.231       .  S
In365       O368   2.262       .  S
In365       O376   2.234       .  S
In365       O370   2.258       .  S
In365       O372   2.262       .  S
In365       O373   2.257       .  S
In365       O374   2.227       .  S
In365       O377   2.240       .  S
C366        O372   1.266       .  A
C366        O374   1.260       .  A
C366       C3823   1.479       .  S
O367        C375   1.262       .  A
O368        C375   1.266       .  A
C369        O376   1.262       .  A
C369        O370   1.266       .  A
C369       C3779   1.482       .  S
C371        O373   1.265       .  A
C371        O377   1.261       .  A
C371       C4461   1.482       .  S
C375       C3812   1.482       .  S
In378       O380   2.223       .  S
In378       O381   2.258       .  S
In378       O389   2.235   1_556  S
In378       O383   2.252       .  S
In378       O385   2.251       .  S
In378       O386   2.264   1_556  S
In378       O387   2.234       .  S
In378       O390   2.222   1_556  S
C379        O385   1.265       .  A
C379        O387   1.261       .  A
C379       C3757   1.479       .  S
O380        C388   1.261       .  A
O381        C388   1.266       .  A
C382        O389   1.263       .  A
C382        O383   1.265   1_554  A
C382       C4549   1.480       .  S
C384        O386   1.266       .  A
C384        O390   1.260       .  A
C384       C3834   1.479       .  S
C388       C3735   1.479       .  S
In391       O393   2.225       .  S
In391       O394   2.269       .  S
In391       O402   2.239       .  S
In391       O396   2.252       .  S
In391       O398   2.268       .  S
In391       O399   2.261       .  S
In391       O400   2.228       .  S
In391       O403   2.232       .  S
C392        O398   1.266       .  A
C392        O400   1.261       .  A
C392       C3713   1.482       .  S
O393        C401   1.261       .  A
O394        C401   1.266       .  A
C395        O402   1.263       .  A
C395        O396   1.265       .  A
C395       C3669   1.481       .  S
C397        O399   1.266       .  A
C397        O403   1.262       .  A
C397       C3702   1.482       .  S
C401       C3768   1.481       .  S
In404       O406   2.229       .  S
In404       O407   2.267       .  S
In404       O415   2.238   1_554  S
In404       O409   2.260       .  S
In404       O411   2.262       .  S
In404       O412   2.262   1_554  S
In404       O413   2.231       .  S
In404       O416   2.218   1_554  S
C405        O411   1.266       .  A
C405        O413   1.262       .  A
C405       C3801   1.482       .  S
O406        C414   1.261       .  A
O407        C414   1.265       .  A
C408        O415   1.262       .  A
C408        O409   1.265   1_556  A
C408       C3625   1.482       .  S
C410        O412   1.267       .  A
C410        O416   1.261       .  A
C410       C3724   1.479       .  S
C414       C3647   1.482       .  S
In417       O419   2.234       .  S
In417       O420   2.256       .  S
In417       O428   2.232       .  S
In417       O422   2.251       .  S
In417       O424   2.263       .  S
In417       O425   2.268       .  S
In417       O426   2.227       .  S
In417       O429   2.230       .  S
C418        O424   1.265       .  A
C418        O426   1.260       .  A
C418       C3603   1.479       .  S
O419        C427   1.262       .  A
O420        C427   1.266       .  A
C421        O428   1.262       .  A
C421        O422   1.265       .  A
C421       C3570   1.478       .  S
C423        O425   1.265       .  A
C423        O429   1.260       .  A
C423       C3581   1.482       .  S
C427       C3944   1.481       .  S
In430       O432   2.226       .  S
In430       O433   2.261       .  S
In430       O441   2.238       .  S
In430       O435   2.252       .  S
In430       O437   2.266   1_545  S
In430       O438   2.258   1_545  S
In430       O439   2.228   1_545  S
In430       O442   2.241   1_545  S
C431        O437   1.265       .  A
C431        O439   1.260       .  A
C431       C3537   1.480       .  S
O432        C440   1.261       .  A
O433        C440   1.266       .  A
C434        O441   1.262       .  A
C434        O435   1.265       .  A
C434       C3900   1.480       .  S
C436        O438   1.264       .  A
C436        O442   1.261       .  A
C436       C3515   1.481       .  S
C440       C3614   1.479       .  S
In443       O445   2.231       .  S
In443       O446   2.257       .  S
In443       O454   2.228       .  S
In443       O448   2.250       .  S
In443       O450   2.263       .  S
In443       O451   2.260       .  S
In443       O452   2.225       .  S
In443       O455   2.222       .  S
C444        O450   1.265       .  A
C444        O452   1.260       .  A
C444       C3493   1.480       .  S
O445        C453   1.261       .  A
O446        C453   1.265       .  A
C447        O454   1.262       .  A
C447        O448   1.265       .  A
C447       C3449   1.477       .  S
C449        O451   1.266       .  A
C449        O455   1.261       .  A
C449       C3548   1.479       .  S
C453       C3471   1.479       .  S
In456       O458   2.227   1_545  S
In456       O459   2.266   1_545  S
In456       O467   2.237       .  S
In456       O461   2.247       .  S
In456       O463   2.259       .  S
In456       O464   2.259       .  S
In456       O465   2.232       .  S
In456       O468   2.225       .  S
C457        O463   1.265       .  A
C457        O465   1.261       .  A
C457       C3592   1.480       .  S
O458        C466   1.260       .  A
O459        C466   1.266       .  A
C460        O467   1.263       .  A
C460        O461   1.265       .  A
C460       C3405   1.479   1_545  S
C462        O464   1.266       .  A
C462        O468   1.261       .  A
C462       C3438   1.479       .  S
C466       C3504   1.481       .  S
In469       O471   2.237       .  S
In469       O472   2.265       .  S
In469       O480   2.241   1_554  S
In469       O474   2.251   1_554  S
In469       O476   2.265       .  S
In469       O477   2.271   1_554  S
In469       O478   2.231       .  S
In469       O481   2.226   1_554  S
C470        O476   1.264       .  A
C470        O478   1.260       .  A
C470       C3383   1.480       .  S
O471        C479   1.262       .  A
O472        C479   1.265       .  A
C473        O480   1.263       .  A
C473        O474   1.264       .  A
C473       C3339   1.481       .  S
C475        O477   1.266       .  A
C475        O481   1.260       .  A
C475       C3361   1.482       .  S
C479       C4098   1.483       .  S
In482       O484   2.223       .  S
In482       O485   2.260       .  S
In482       O493   2.238       .  S
In482       O487   2.267       .  S
In482       O489   2.266       .  S
In482       O490   2.259       .  S
In482       O491   2.232       .  S
In482       O494   2.232       .  S
C483        O489   1.266       .  A
C483        O491   1.260       .  A
C483       C3328   1.482       .  S
O484        C492   1.261       .  A
O485        C492   1.265       .  A
C486        O493   1.262       .  A
C486        O487   1.265       .  A
C486       C4054   1.485       .  S
C488        O490   1.264       .  A
C488        O494   1.262       .  A
C488       C4604   1.480       .  S
C492       C3394   1.479       .  S
In495       O497   2.219       .  S
In495       O498   2.273       .  S
In495       O506   2.239       .  S
In495       O500   2.249       .  S
In495       O502   2.264       .  S
In495       O503   2.259       .  S
In495       O504   2.229       .  S
In495       O507   2.231       .  S
C496        O502   1.265       .  A
C496        O504   1.260       .  A
C496       C3372   1.480       .  S
O497        C505   1.260       .  A
O498        C505   1.266       .  A
C499        O506   1.263       .  A
C499        O500   1.264       .  A
C499       C3482   1.480       .  S
C501        O503   1.265       .  A
C501        O507   1.261       .  A
C501       C3273   1.480       .  S
C505       C3306   1.481       .  S
In508       O510   2.221       .  S
In508       O511   2.260       .  S
In508       O519   2.240   1_556  S
In508       O513   2.261       .  S
In508       O515   2.263       .  S
In508       O516   2.258   1_556  S
In508       O517   2.225       .  S
In508       O520   2.235   1_556  S
C509        O515   1.267       .  A
C509        O517   1.261       .  A
C509       C3295   1.481       .  S
O510        C518   1.262       .  A
O511        C518   1.267       .  A
C512        O519   1.263       .  A
C512        O513   1.266   1_554  A
C512       C4450   1.484       .  S
C514        O516   1.266       .  A
C514        O520   1.262       .  A
C514       C3317   1.481       .  S
C518       C3416   1.479       .  S
In521       O523   2.227       .  S
In521       O524   2.260       .  S
In521       O532   2.234       .  S
In521       O526   2.248       .  S
In521       O528   2.253       .  S
In521       O529   2.269       .  S
In521       O530   2.229       .  S
In521       O533   2.225       .  S
C522        O528   1.265       .  A
C522        O530   1.261       .  A
C522       C3251   1.478       .  S
O523        C531   1.262       .  A
O524        C531   1.267       .  A
C525        O532   1.263       .  A
C525        O526   1.265       .  A
C525       C3284   1.479       .  S
C527        O529   1.267       .  A
C527        O533   1.260       .  A
C527       C3229   1.482       .  S
C531       C4945   1.481       .  S
In534       O536   2.217       .  S
In534       O537   2.263       .  S
In534       O545   2.231       .  S
In534       O539   2.252       .  S
In534       O541   2.257       .  S
In534       O542   2.257       .  S
In534       O543   2.224       .  S
In534       O546   2.232       .  S
C535        O541   1.266       .  A
C535        O543   1.260       .  A
C535       C3218   1.477       .  S
O536        C544   1.260       .  A
O537        C544   1.267       .  A
C538        O545   1.263       .  A
C538        O539   1.266       .  A
C538       C5077   1.481       .  S
C540        O542   1.266       .  A
C540        O546   1.262       .  A
C540       C3636   1.481       .  S
C544       C3262   1.479       .  S
In547       O549   2.225       .  S
In547       O550   2.267       .  S
In547       O558   2.244       .  S
In547       O552   2.246       .  S
In547       O554   2.267       .  S
In547       O555   2.266       .  S
In547       O556   2.228       .  S
In547       O559   2.230       .  S
C548        O554   1.265       .  A
C548        O556   1.260       .  A
C548       C3240   1.482       .  S
O549        C557   1.260       .  A
O550        C557   1.266       .  A
C551        O558   1.263       .  A
C551        O552   1.265       .  A
C551       C3163   1.481       .  S
C553        O555   1.266       .  A
C553        O559   1.261       .  A
C553       C3350   1.482       .  S
C557       C3196   1.479       .  S
In560       O562   2.227       .  S
In560       O563   2.259       .  S
In560       O571   2.234       .  S
In560       O565   2.254       .  S
In560       O567   2.258       .  S
In560       O568   2.261       .  S
In560       O569   2.225       .  S
In560       O572   2.221       .  S
C561        O567   1.265       .  A
C561        O569   1.261       .  A
C561       C3185   1.478       .  S
O562        C570   1.261       .  A
O563        C570   1.265       .  A
C564        O571   1.263       .  A
C564        O565   1.265       .  A
C564       C3691   1.481       .  S
C566        O568   1.266       .  A
C566        O572   1.260       .  A
C566       C3207   1.478       .  S
C570       C3141   1.479       .  S
In573       O575   2.213       .  S
In573       O576   2.257       .  S
In573       O584   2.233       .  S
In573       O578   2.242       .  S
In573       O580   2.253       .  S
In573       O581   2.264       .  S
In573       O582   2.217       .  S
In573       O585   2.221       .  S
C574        O580   1.265       .  A
C574        O582   1.261       .  A
C574       C3130   1.476       .  S
O575        C583   1.261       .  A
O576        C583   1.267       .  A
C577        O584   1.263       .  A
C577        O578   1.264       .  A
C577       C3053   1.477       .  S
C579        O581   1.266       .  A
C579        O585   1.261       .  A
C579       C3097   1.480       .  S
C583       C3086   1.475       .  S
In586       O588   2.216   1_554  S
In586       O589   2.256   1_554  S
In586       O597   2.232   1_554  S
In586       O591   2.254       .  S
In586       O593   2.250       .  S
In586       O594   2.258       .  S
In586       O595   2.224       .  S
In586       O598   2.215       .  S
C587        O593   1.267       .  A
C587        O595   1.262       .  A
C587       C3108   1.478       .  S
O588        C596   1.261       .  A
O589        C596   1.267       .  A
C590        O597   1.262       .  A
C590        O591   1.265   1_556  A
C590       C2998   1.479       .  S
C592        O594   1.266       .  A
C592        O598   1.261       .  A
C592       C3009   1.476       .  S
C596       C3042   1.476       .  S
In599       O601   2.231       .  S
In599       O602   2.246       .  S
In599       O610   2.222       .  S
In599       O604   2.261       .  S
In599       O606   2.262       .  S
In599       O607   2.259       .  S
In599       O608   2.219       .  S
In599       O611   2.226       .  S
C600        O606   1.267       .  A
C600        O608   1.260       .  A
C600       C3031   1.478       .  S
O601        C609   1.262       .  A
O602        C609   1.265       .  A
C603        O610   1.261       .  A
C603        O604   1.266       .  A
C603       C2921   1.479       .  S
C605        O607   1.265       .  A
C605        O611   1.262       .  A
C605       C2976   1.479       .  S
C609       C2954   1.478       .  S
In612       O614   2.231   1_556  S
In612       O615   2.256   1_556  S
In612       O623   2.241   1_556  S
In612       O617   2.261       .  S
In612       O619   2.269       .  S
In612       O620   2.267       .  S
In612       O621   2.236       .  S
In612       O624   2.233       .  S
C613        O619   1.266       .  A
C613        O621   1.260       .  A
C613       C2965   1.483       .  S
O614        C622   1.261       .  A
O615        C622   1.266       .  A
C616        O623   1.263       .  A
C616        O617   1.266   1_554  A
C616       C2877   1.485       .  S
C618        O620   1.265       .  A
C618        O624   1.262       .  A
C618       C2910   1.484       .  S
C622       C3119   1.478       .  S
In625       O627   2.234       .  S
In625       O628   2.267       .  S
In625       O636   2.236       .  S
In625       O630   2.255       .  S
In625       O632   2.260       .  S
In625       O633   2.270       .  S
In625       O634   2.223       .  S
In625       O637   2.235       .  S
C626        O632   1.265       .  A
C626        O634   1.260       .  A
C626       C2855   1.477       .  S
O627        C635   1.262       .  A
O628        C635   1.267       .  A
C629        O636   1.263       .  A
C629        O630   1.265       .  A
C629       C4120   1.481       .  S
C631        O633   1.266       .  A
C631        O637   1.260       .  A
C631       C2833   1.484       .  S
C635       C2888   1.485       .  S
In638       O640   2.224       .  S
In638       O641   2.260       .  S
In638       O649   2.233       .  S
In638       O643   2.257       .  S
In638       O645   2.265       .  S
In638       O646   2.254       .  S
In638       O647   2.229       .  S
In638       O650   2.229       .  S
C639        O645   1.266       .  A
C639        O647   1.260       .  A
C639       C2844   1.482       .  S
O640        C648   1.261       .  A
O641        C648   1.265       .  A
C642        O649   1.262       .  A
C642        O643   1.265       .  A
C642       C2789   1.480       .  S
C644        O646   1.265       .  A
C644        O650   1.262       .  A
C644       C4153   1.479       .  S
C648       C2822   1.478       .  S
In651       O653   2.219       .  S
In651       O654   2.264       .  S
In651       O662   2.231       .  S
In651       O656   2.250       .  S
In651       O658   2.253       .  S
In651       O659   2.251       .  S
In651       O660   2.223       .  S
In651       O663   2.225       .  S
C652        O658   1.265       .  A
C652        O660   1.261       .  A
C652       C2778   1.476       .  S
O653        C661   1.260       .  A
O654        C661   1.265       .  A
C655        O662   1.262       .  A
C655        O656   1.264       .  A
C655       C3075   1.477       .  S
C657        O659   1.265       .  A
C657        O663   1.261       .  A
C657       C2756   1.476       .  S
C661       C2866   1.478       .  S
In664       O666   2.237       .  S
In664       O667   2.265       .  S
In664       O675   2.240       .  S
In664       O669   2.256       .  S
In664       O671   2.257       .  S
In664       O672   2.263       .  S
In664       O673   2.232       .  S
In664       O676   2.230       .  S
C665        O671   1.264       .  A
C665        O673   1.260       .  A
C665       C2811   1.478       .  S
O666        C674   1.261       .  A
O667        C674   1.264       .  A
C668        O675   1.262       .  A
C668        O669   1.264       .  A
C668       C2712   1.482       .  S
C670        O672   1.265       .  A
C670        O676   1.261       .  A
C670       C2767   1.479       .  S
C674       C2734   1.483       .  S
In677       O679   2.220       .  S
In677       O680   2.260       .  S
In677       O688   2.227       .  S
In677       O682   2.249       .  S
In677       O684   2.250       .  S
In677       O685   2.260       .  S
In677       O686   2.221       .  S
In677       O689   2.226       .  S
C678        O684   1.266       .  A
C678        O686   1.262       .  A
C678       C2690   1.476       .  S
O679        C687   1.261       .  A
O680        C687   1.266       .  A
C681        O688   1.262       .  A
C681        O682   1.264       .  A
C681       C2745   1.476       .  S
C683        O685   1.266       .  A
C683        O689   1.261       .  A
C683       C2668   1.480       .  S
C687       C5396   1.479       .  S
In690       O692   2.226       .  S
In690       O693   2.261       .  S
In690       O701   2.230       .  S
In690       O695   2.252       .  S
In690       O697   2.253       .  S
In690       O698   2.252       .  S
In690       O699   2.224       .  S
In690       O702   2.222       .  S
C691        O697   1.267       .  A
C691        O699   1.262       .  A
C691       C2635   1.478       .  S
O692        C700   1.261       .  A
O693        C700   1.266       .  A
C694        O701   1.262       .  A
C694        O695   1.265       .  A
C694       C5352   1.478       .  S
C696        O698   1.267       .  A
C696        O702   1.262       .  A
C696       C4868   1.478       .  S
C700       C2679   1.480       .  S
In703       O705   2.228       .  S
In703       O706   2.270       .  S
In703       O714   2.241       .  S
In703       O708   2.249       .  S
In703       O710   2.262       .  S
In703       O711   2.263       .  S
In703       O712   2.225       .  S
In703       O715   2.234       .  S
C704        O710   1.265       .  A
C704        O712   1.260       .  A
C704       C2657   1.479       .  S
O705        C713   1.260       .  A
O706        C713   1.266       .  A
C707        O714   1.263       .  A
C707        O708   1.265       .  A
C707       C3658   1.481       .  S
C709        O711   1.266       .  A
C709        O715   1.262       .  A
C709       C2701   1.483       .  S
C713       C2613   1.482       .  S
In716       O718   2.231       .  S
In716       O719   2.267       .  S
In716       O727   2.241       .  S
In716       O721   2.254       .  S
In716       O723   2.262       .  S
In716       O724   2.268       .  S
In716       O725   2.231       .  S
In716       O728   2.221       .  S
C717        O723   1.266       .  A
C717        O725   1.260       .  A
C717       C2624   1.480       .  S
O718        C726   1.261       .  A
O719        C726   1.267       .  A
C720        O727   1.264       .  A
C720        O721   1.266       .  A
C720       C4813   1.484       .  S
C722        O724   1.267       .  A
C722        O728   1.261       .  A
C722       C2646   1.480       .  S
C726       C3790   1.483       .  S
In729       O731   2.211       .  S
In729       O732   2.263       .  S
In729       O740   2.237       .  S
In729       O734   2.254       .  S
In729       O736   2.266       .  S
In729       O737   2.257       .  S
In729       O738   2.233       .  S
In729       O741   2.227       .  S
C730        O736   1.266       .  A
C730        O738   1.261       .  A
C730       C2591   1.483       .  S
O731        C739   1.261       .  A
O732        C739   1.267       .  A
C733        O740   1.263       .  A
C733        O734   1.266       .  A
C733       C2558   1.482       .  S
C735        O737   1.265       .  A
C735        O741   1.261       .  A
C735       C3460   1.478       .  S
C739       C2569   1.477       .  S
In742       O744   2.229   1_455  S
In742       O745   2.265   1_455  S
In742       O753   2.231       .  S
In742       O747   2.261       .  S
In742       O749   2.258   1_455  S
In742       O750   2.269       .  S
In742       O751   2.234   1_455  S
In742       O754   2.230       .  S
C743        O749   1.264       .  A
C743        O751   1.260       .  A
C743       C2525   1.479       .  S
O744        C752   1.260       .  A
O745        C752   1.265       .  A
C746        O753   1.262       .  A
C746        O747   1.264       .  A
C746       C3526   1.481       .  S
C748        O750   1.265       .  A
C748        O754   1.261       .  A
C748       C2602   1.482       .  S
C752       C2503   1.480       .  S
In755       O757   2.224       .  S
In755       O758   2.264       .  S
In755       O766   2.239       .  S
In755       O760   2.248       .  S
In755       O762   2.261       .  S
In755       O763   2.265       .  S
In755       O764   2.231       .  S
In755       O767   2.233       .  S
C756        O762   1.265       .  A
C756        O764   1.261       .  A
C756       C2481   1.480       .  S
O757        C765   1.260       .  A
O758        C765   1.266       .  A
C759        O766   1.263       .  A
C759        O760   1.264       .  A
C759       C2437   1.478       .  S
C761        O763   1.266       .  A
C761        O767   1.262       .  A
C761       C2459   1.483       .  S
C765       C2536   1.479       .  S
In768       O770   2.230       .  S
In768       O771   2.260       .  S
In768       O779   2.228       .  S
In768       O773   2.253       .  S
In768       O775   2.257       .  S
In768       O776   2.263   1_455  S
In768       O777   2.228       .  S
In768       O780   2.227   1_455  S
C769        O775   1.265       .  A
C769        O777   1.261       .  A
C769       C2580   1.478       .  S
O770        C778   1.262       .  A
O771        C778   1.266       .  A
C772        O779   1.262       .  A
C772        O773   1.266       .  A
C772       C2393   1.479   1_455  S
C774        O776   1.266       .  A
C774        O780   1.261       .  A
C774       C2492   1.480       .  S
C778       C2415   1.482       .  S
In781       O783   2.229       .  S
In781       O784   2.258       .  S
In781       O792   2.239       .  S
In781       O786   2.257       .  S
In781       O788   2.264       .  S
In781       O789   2.268       .  S
In781       O790   2.225       .  S
In781       O793   2.226       .  S
C782        O788   1.266       .  A
C782        O790   1.261       .  A
C782       C2382   1.480       .  S
O783        C791   1.261       .  A
O784        C791   1.265       .  A
C785        O792   1.262       .  A
C785        O786   1.265       .  A
C785       C2327   1.482       .  S
C787        O789   1.266       .  A
C787        O793   1.261       .  A
C787       C2360   1.481       .  S
C791       C2800   1.479       .  S
In794       O796   2.228   1_554  S
In794       O797   2.263   1_554  S
In794       O805   2.238   1_554  S
In794       O799   2.259   1_554  S
In794       O801   2.261       .  S
In794       O802   2.264       .  S
In794       O803   2.236       .  S
In794       O806   2.233       .  S
C795        O801   1.265       .  A
C795        O803   1.261       .  A
C795       C2349   1.482       .  S
O796        C804   1.261       .  A
O797        C804   1.266       .  A
C798        O805   1.262       .  A
C798        O799   1.265       .  A
C798       C2272   1.482       .  S
C800        O802   1.265       .  A
C800        O806   1.261       .  A
C800       C2283   1.482       .  S
C804       C2316   1.481       .  S
In807       O809   2.228       .  S
In807       O810   2.264       .  S
In807       O818   2.247       .  S
In807       O812   2.259       .  S
In807       O814   2.259       .  S
In807       O815   2.271       .  S
In807       O816   2.234       .  S
In807       O819   2.226       .  S
C808        O814   1.265       .  A
C808        O816   1.261       .  A
C808       C2305   1.480       .  S
O809        C817   1.261       .  A
O810        C817   1.266       .  A
C811        O818   1.263       .  A
C811        O812   1.264       .  A
C811       C5154   1.486       .  S
C813        O815   1.266       .  A
C813        O819   1.260       .  A
C813       C2239   1.481       .  S
C817       C2217   1.479       .  S
In820       O822   2.221   1_556  S
In820       O823   2.263   1_556  S
In820       O831   2.235   1_556  S
In820       O825   2.256       .  S
In820       O827   2.259       .  S
In820       O828   2.256       .  S
In820       O829   2.229       .  S
In820       O832   2.226       .  S
C821        O827   1.266       .  A
C821        O829   1.260       .  A
C821       C2250   1.480       .  S
O822        C830   1.261       .  A
O823        C830   1.266       .  A
C824        O831   1.263       .  A
C824        O825   1.265   1_554  A
C824       C2723   1.482       .  S
C826        O828   1.266       .  A
C826        O832   1.262       .  A
C826       C5066   1.479       .  S
C830       C2371   1.479       .  S
In833       O835   2.237       .  S
In833       O836   2.258       .  S
In833       O844   2.235       .  S
In833       O838   2.259       .  S
In833       O840   2.258       .  S
In833       O841   2.260   1_455  S
In833       O842   2.228       .  S
In833       O845   2.228   1_455  S
C834        O840   1.265       .  A
C834        O842   1.260       .  A
C834       C2206   1.478       .  S
O835        C843   1.262       .  A
O836        C843   1.265       .  A
C837        O844   1.262       .  A
C837        O838   1.265       .  A
C837       C2162   1.482   1_455  S
C839        O841   1.265       .  A
C839        O845   1.261       .  A
C839       C2173   1.479       .  S
C843       C2261   1.481       .  S
In846       O848   2.226       .  S
In846       O849   2.259       .  S
In846       O857   2.233       .  S
In846       O851   2.249       .  S
In846       O853   2.258       .  S
In846       O854   2.256       .  S
In846       O855   2.220       .  S
In846       O858   2.224       .  S
C847        O853   1.265       .  A
C847        O855   1.261       .  A
C847       C2140   1.476       .  S
O848        C856   1.261       .  A
O849        C856   1.265       .  A
C850        O857   1.262       .  A
C850        O851   1.264       .  A
C850       C2228   1.478       .  S
C852        O854   1.265       .  A
C852        O858   1.261       .  A
C852       C3559   1.478       .  S
C856       C2195   1.478       .  S
In859       O861   2.223       .  S
In859       O862   2.260       .  S
In859       O870   2.233       .  S
In859       O864   2.253       .  S
In859       O866   2.259       .  S
In859       O867   2.260       .  S
In859       O868   2.220       .  S
In859       O871   2.230       .  S
C860        O866   1.266       .  A
C860        O868   1.261       .  A
C860       C2184   1.478       .  S
O861        C869   1.261       .  A
O862        C869   1.266       .  A
C863        O870   1.262       .  A
C863        O864   1.265       .  A
C863       C2943   1.479       .  S
C865        O867   1.266       .  A
C865        O871   1.262       .  A
C865       C2085   1.481       .  S
C869       C2118   1.479       .  S
In872       O874   2.230   1_455  S
In872       O875   2.254   1_455  S
In872       O883   2.237       .  S
In872       O877   2.250       .  S
In872       O879   2.256   1_455  S
In872       O880   2.256       .  S
In872       O881   2.224   1_455  S
In872       O884   2.219       .  S
C873        O879   1.266       .  A
C873        O881   1.261       .  A
C873       C2107   1.478       .  S
O874        C882   1.261       .  A
O875        C882   1.266       .  A
C876        O883   1.263       .  A
C876        O877   1.265       .  A
C876       C3427   1.480       .  S
C878        O880   1.267       .  A
C878        O884   1.261       .  A
C878       C2129   1.477       .  S
C882       C2987   1.479       .  S
In885       O887   2.225       .  S
In885       O888   2.263       .  S
In885       O896   2.235       .  S
In885       O890   2.256       .  S
In885       O892   2.255       .  S
In885       O893   2.261       .  S
In885       O894   2.230       .  S
In885       O897   2.227       .  S
C886        O892   1.266       .  A
C886        O894   1.261       .  A
C886       C2063   1.479       .  S
O887        C895   1.262       .  A
O888        C895   1.266       .  A
C889        O896   1.262       .  A
C889        O890   1.265       .  A
C889       C2096   1.481       .  S
C891        O893   1.266       .  A
C891        O897   1.261       .  A
C891       C2052   1.480       .  S
C895       C5253   1.481       .  S
In898       O900   2.218       .  S
In898       O901   2.271       .  S
In898       O909   2.244       .  S
In898       O903   2.255       .  S
In898       O905   2.257       .  S
In898       O906   2.266       .  S
In898       O907   2.235       .  S
In898       O910   2.230       .  S
C899        O905   1.266       .  A
C899        O907   1.261       .  A
C899       C2019   1.481       .  S
O900        C908   1.261       .  A
O901        C908   1.268       .  A
C902        O909   1.263       .  A
C902        O903   1.265       .  A
C902       C5242   1.484       .  S
C904        O906   1.267       .  A
C904        O910   1.261       .  A
C904       C2404   1.482       .  S
C908       C2074   1.481       .  S
In911       O913   2.226       .  S
In911       O914   2.266       .  S
In911       O922   2.235       .  S
In911       O916   2.253       .  S
In911       O918   2.259       .  S
In911       O919   2.259       .  S
In911       O920   2.227       .  S
In911       O923   2.231       .  S
C912        O918   1.265       .  A
C912        O920   1.260       .  A
C912       C2041   1.478       .  S
O913        C921   1.261       .  A
O914        C921   1.266       .  A
C915        O922   1.263       .  A
C915        O916   1.265       .  A
C915       C3746   1.481       .  S
C917        O919   1.266       .  A
C917        O923   1.261       .  A
C917       C2151   1.481       .  S
C921       C1997   1.480       .  S
In924       O926   2.230       .  S
In924       O927   2.257       .  S
In924       O935   2.241       .  S
In924       O929   2.260       .  S
In924       O931   2.256       .  S
In924       O932   2.269       .  S
In924       O933   2.241       .  S
In924       O936   2.220       .  S
C925        O931   1.265       .  A
C925        O933   1.261       .  A
C925       C2008   1.481       .  S
O926        C934   1.261       .  A
O927        C934   1.265       .  A
C928        O935   1.262       .  A
C928        O929   1.265       .  A
C928       C2470   1.484       .  S
C930        O932   1.266       .  A
C930        O936   1.260       .  A
C930       C2030   1.480       .  S
C934       C3680   1.479       .  S
In937       O939   2.227       .  S
In937       O940   2.258       .  S
In937       O948   2.230       .  S
In937       O942   2.249       .  S
In937       O944   2.262       .  S
In937       O945   2.257       .  S
In937       O946   2.222       .  S
In937       O949   2.227       .  S
C938        O944   1.266       .  A
C938        O946   1.261       .  A
C938       C1986   1.479       .  S
O939        C947   1.262       .  A
O940        C947   1.265       .  A
C941        O948   1.262       .  A
C941        O942   1.265       .  A
C941       C3845   1.476       .  S
C943        O945   1.265       .  A
C943        O949   1.260       .  A
C943       C1964   1.479       .  S
C947       C1942   1.480       .  S
In950       O952   2.224   1_455  S
In950       O953   2.265   1_455  S
In950       O961   2.231       .  S
In950       O955   2.257       .  S
In950       O957   2.266       .  S
In950       O958   2.257       .  S
In950       O959   2.221       .  S
In950       O962   2.230       .  S
C951        O957   1.267       .  A
C951        O959   1.261       .  A
C951       C1953   1.480       .  S
O952        C960   1.261       .  A
O953        C960   1.266       .  A
C954        O961   1.262       .  A
C954        O955   1.266       .  A
C954       C1887   1.481   1_455  S
C956        O958   1.266       .  A
C956        O962   1.262       .  A
C956       C3878   1.481       .  S
C960       C1909   1.481       .  S
In963       O965   2.227       .  S
In963       O966   2.263       .  S
In963       O974   2.232       .  S
In963       O968   2.264       .  S
In963       O970   2.261       .  S
In963       O971   2.271       .  S
In963       O972   2.225       .  S
In963       O975   2.228       .  S
C964        O970   1.266       .  A
C964        O972   1.261       .  A
C964       C1920   1.480       .  S
O965        C973   1.261       .  A
O966        C973   1.266       .  A
C967        O974   1.262       .  A
C967        O968   1.265       .  A
C967       C5418   1.482       .  S
C969        O971   1.266       .  A
C969        O975   1.261       .  A
C969       C1865   1.483       .  S
C973       C1843   1.481       .  S
In976       O978   2.221       .  S
In976       O979   2.265       .  S
In976       O987   2.239       .  S
In976       O981   2.249       .  S
In976       O983   2.258   1_455  S
In976       O984   2.258   1_455  S
In976       O985   2.231   1_455  S
In976       O988   2.235   1_455  S
C977        O983   1.266       .  A
C977        O985   1.261       .  A
C977       C1876   1.481       .  S
O978        C986   1.261       .  A
O979        C986   1.267       .  A
C980        O987   1.264       .  A
C980        O981   1.266       .  A
C980       C1832   1.481       .  S
C982        O984   1.266       .  A
C982        O988   1.262       .  A
C982       C5220   1.482       .  S
C986       C1975   1.480       .  S
In989       O991   2.235       .  S
In989       O992   2.255       .  S
In989      O1000   2.241       .  S
In989       O994   2.254       .  S
In989       O996   2.259       .  S
In989       O997   2.271       .  S
In989       O998   2.230       .  S
In989      O1001   2.226       .  S
C990        O996   1.265       .  A
C990        O998   1.261       .  A
C990       C1810   1.480       .  S
O991        C999   1.262       .  A
O992        C999   1.265       .  A
C993       O1000   1.262       .  A
C993        O994   1.263       .  A
C993       C1766   1.480       .  S
C995        O997   1.265       .  A
C995       O1001   1.260       .  A
C995       C1777   1.481       .  S
C999       C1821   1.481       .  S
In1002     O1004   2.231       .  S
In1002     O1005   2.268       .  S
In1002     O1013   2.243       .  S
In1002     O1007   2.259       .  S
In1002     O1009   2.266       .  S
In1002     O1010   2.263       .  S
In1002     O1011   2.235       .  S
In1002     O1014   2.231       .  S
C1003      O1009   1.265       .  A
C1003      O1011   1.261       .  A
C1003      C1733   1.483       .  S
O1004      C1012   1.261       .  A
O1005      C1012   1.265       .  A
C1006      O1013   1.262       .  A
C1006      O1007   1.264       .  A
C1006      C1931   1.483       .  S
C1008      O1010   1.265       .  A
C1008      O1014   1.261       .  A
C1008      C2338   1.481       .  S
C1012      C1799   1.482       .  S
In1015     O1017   2.225       .  S
In1015     O1018   2.263       .  S
In1015     O1026   2.233       .  S
In1015     O1020   2.250       .  S
In1015     O1022   2.264       .  S
In1015     O1023   2.254       .  S
In1015     O1024   2.227       .  S
In1015     O1027   2.233       .  S
C1016      O1022   1.265       .  A
C1016      O1024   1.261       .  A
C1016      C1788   1.480       .  S
O1017      C1025   1.261       .  A
O1018      C1025   1.265       .  A
C1019      O1026   1.262       .  A
C1019      O1020   1.265       .  A
C1019      C4615   1.478       .  S
C1021      O1023   1.265       .  A
C1021      O1027   1.261       .  A
C1021      C1689   1.479       .  S
C1025      C1722   1.479       .  S
In1028     O1030   2.232       .  S
In1028     O1031   2.269       .  S
In1028     O1039   2.241       .  S
In1028     O1033   2.255       .  S
In1028     O1035   2.258       .  S
In1028     O1036   2.271       .  S
In1028     O1037   2.229       .  S
In1028     O1040   2.226       .  S
C1029      O1035   1.265       .  A
C1029      O1037   1.261       .  A
C1029      C1711   1.479       .  S
O1030      C1038   1.260       .  A
O1031      C1038   1.266       .  A
C1032      O1039   1.263       .  A
C1032      O1033   1.264       .  A
C1032      C2294   1.482       .  S
C1034      O1036   1.267       .  A
C1034      O1040   1.261       .  A
C1034      C1744   1.483       .  S
C1038      C4538   1.483       .  S
In1041     O1043   2.229       .  S
In1041     O1044   2.262       .  S
In1041     O1052   2.233       .  S
In1041     O1046   2.254       .  S
In1041     O1048   2.265       .  S
In1041     O1049   2.257       .  S
In1041     O1050   2.223       .  S
In1041     O1053   2.223       .  S
C1042      O1048   1.266       .  A
C1042      O1050   1.261       .  A
C1042      C1667   1.481       .  S
O1043      C1051   1.262       .  A
O1044      C1051   1.265       .  A
C1045      O1052   1.262       .  A
C1045      O1046   1.265       .  A
C1045      C1700   1.479       .  S
C1047      O1049   1.266       .  A
C1047      O1053   1.261       .  A
C1047      C1645   1.477       .  S
C1051      C4692   1.481       .  S
In1054     O1056   2.228       .  S
In1054     O1057   2.261       .  S
In1054     O1065   2.238       .  S
In1054     O1059   2.254       .  S
In1054     O1061   2.262       .  S
In1054     O1062   2.251       .  S
In1054     O1063   2.222       .  S
In1054     O1066   2.228       .  S
C1055      O1061   1.266       .  A
C1055      O1063   1.260       .  A
C1055      C1656   1.478       .  S
O1056      C1064   1.261       .  A
O1057      C1064   1.266       .  A
C1058      O1065   1.262       .  A
C1058      O1059   1.266       .  A
C1058      C2426   1.482       .  S
C1060      O1062   1.266       .  A
C1060      O1066   1.262       .  A
C1060      C1755   1.478       .  S
C1064      C1634   1.480       .  S
In1067     O1069   2.233       .  S
In1067     O1070   2.260       .  S
In1067     O1078   2.234       .  S
In1067     O1072   2.255       .  S
In1067     O1074   2.267       .  S
In1067     O1075   2.266       .  S
In1067     O1076   2.226       .  S
In1067     O1079   2.222       .  S
C1068      O1074   1.266       .  A
C1068      O1076   1.260       .  A
C1068      C1623   1.481       .  S
O1069      C1077   1.261       .  A
O1070      C1077   1.265       .  A
C1071      O1078   1.263       .  A
C1071      O1072   1.266       .  A
C1071      C4967   1.482       .  S
C1073      O1075   1.266       .  A
C1073      O1079   1.261       .  A
C1073      C1612   1.479       .  S
C1077      C2547   1.481       .  S
In1080     O1082   2.230       .  S
In1080     O1083   2.259       .  S
In1080     O1091   2.245       .  S
In1080     O1085   2.266       .  S
In1080     O1087   2.267       .  S
In1080     O1088   2.267       .  S
In1080     O1089   2.230       .  S
In1080     O1092   2.227       .  S
C1081      O1087   1.266       .  A
C1081      O1089   1.260       .  A
C1081      C1601   1.481       .  S
O1082      C1090   1.262       .  A
O1083      C1090   1.266       .  A
C1084      O1091   1.262       .  A
C1084      O1085   1.265       .  A
C1084      C4890   1.486       .  S
C1086      O1088   1.265       .  A
C1086      O1092   1.260       .  A
C1086      C4989   1.480       .  S
C1090      C1678   1.481       .  S
In1093     O1095   2.214       .  S
In1093     O1096   2.251       .  S
In1093     O1104   2.229       .  S
In1093     O1098   2.259       .  S
In1093     O1100   2.260       .  S
In1093     O1101   2.257       .  S
In1093     O1102   2.233       .  S
In1093     O1105   2.222       .  S
C1094      O1100   1.267       .  A
C1094      O1102   1.261       .  A
C1094      C1590   1.482       .  S
O1095      C1103   1.262       .  A
O1096      C1103   1.267       .  A
C1097      O1104   1.263       .  A
C1097      O1098   1.267       .  A
C1097      C4241   1.482       .  S
C1099      O1101   1.266       .  A
C1099      O1105   1.261       .  A
C1099      C2932   1.478       .  S
C1103      C1557   1.475       .  S
In1106     O1108   2.231   1_545  S
In1106     O1109   2.266   1_545  S
In1106     O1117   2.242       .  S
In1106     O1111   2.262       .  S
In1106     O1113   2.257   1_545  S
In1106     O1114   2.273       .  S
In1106     O1115   2.230   1_545  S
In1106     O1118   2.220       .  S
C1107      O1113   1.266       .  A
C1107      O1115   1.261       .  A
C1107      C1546   1.479       .  S
O1108      C1116   1.261       .  A
O1109      C1116   1.266       .  A
C1110      O1117   1.263       .  A
C1110      O1111   1.265       .  A
C1110      C2899   1.486       .  S
C1112      O1114   1.267       .  A
C1112      O1118   1.261       .  A
C1112      C1579   1.483       .  S
C1116      C3174   1.482       .  S
In1119     O1121   2.218       .  S
In1119     O1122   2.258       .  S
In1119     O1130   2.224       .  S
In1119     O1124   2.252       .  S
In1119     O1126   2.257       .  S
In1119     O1127   2.256       .  S
In1119     O1128   2.226       .  S
In1119     O1131   2.223       .  S
C1120      O1126   1.266       .  A
C1120      O1128   1.261       .  A
C1120      C1513   1.479       .  S
O1121      C1129   1.261       .  A
O1122      C1129   1.266       .  A
C1123      O1130   1.262       .  A
C1123      O1124   1.266       .  A
C1123      C3152   1.477       .  S
C1125      O1127   1.266       .  A
C1125      O1131   1.262       .  A
C1125      C1491   1.478       .  S
C1129      C1535   1.477       .  S
In1132     O1134   2.230       .  S
In1132     O1135   2.268       .  S
In1132     O1143   2.233       .  S
In1132     O1137   2.249       .  S
In1132     O1139   2.247       .  S
In1132     O1140   2.268   1_545  S
In1132     O1141   2.223       .  S
In1132     O1144   2.223       .  S
C1133      O1139   1.266       .  A
C1133      O1141   1.262       .  A
C1133      C1568   1.474       .  S
O1134      C1142   1.262       .  A
O1135      C1142   1.267       .  A
C1136      O1143   1.263       .  A
C1136      O1137   1.265       .  A
C1136      C1469   1.479   1_545  S
C1138      O1140   1.267       .  A
C1138      O1144   1.260   1_565  A
C1138      C1524   1.481       .  S
C1142      C4296   1.485       .  S
In1145     O1147   2.227       .  S
In1145     O1148   2.262       .  S
In1145     O1156   2.248       .  S
In1145     O1150   2.254       .  S
In1145     O1152   2.264       .  S
In1145     O1153   2.261   1_545  S
In1145     O1154   2.229       .  S
In1145     O1157   2.218   1_545  S
C1146      O1152   1.266       .  A
C1146      O1154   1.261       .  A
C1146      C1447   1.482       .  S
O1147      C1155   1.262       .  A
O1148      C1155   1.266       .  A
C1149      O1156   1.262       .  A
C1149      O1150   1.265       .  A
C1149      C1403   1.484   1_545  S
C1151      O1153   1.266       .  A
C1151      O1157   1.260       .  A
C1151      C1436   1.477       .  S
C1155      C1898   1.481       .  S
In1158     O1160   2.226       .  S
In1158     O1161   2.266       .  S
In1158     O1169   2.239       .  S
In1158     O1163   2.255       .  S
In1158     O1165   2.258       .  S
In1158     O1166   2.259       .  S
In1158     O1167   2.228       .  S
In1158     O1170   2.227       .  S
C1159      O1165   1.266       .  A
C1159      O1167   1.261       .  A
C1159      C1392   1.479       .  S
O1160      C1168   1.261       .  A
O1161      C1168   1.267       .  A
C1162      O1169   1.262       .  A
C1162      O1163   1.265       .  A
C1162      C1854   1.481       .  S
C1164      O1166   1.266       .  A
C1164      O1170   1.261       .  A
C1164      C3064   1.479       .  S
C1168      C1458   1.482       .  S
In1171     O1173   2.224       .  S
In1171     O1174   2.266       .  S
In1171     O1182   2.236       .  S
In1171     O1176   2.243       .  S
In1171     O1178   2.254       .  S
In1171     O1179   2.263       .  S
In1171     O1180   2.228       .  S
In1171     O1183   2.228       .  S
C1172      O1178   1.264       .  A
C1172      O1180   1.261       .  A
C1172      C1425   1.477       .  S
O1173      C1181   1.260       .  A
O1174      C1181   1.266       .  A
C1175      O1182   1.263       .  A
C1175      O1176   1.264       .  A
C1175      C4483   1.478       .  S
C1177      O1179   1.267       .  A
C1177      O1183   1.261       .  A
C1177      C1348   1.482       .  S
C1181      C1359   1.480       .  S
In1184     O1186   2.214   1_545  S
In1184     O1187   2.250   1_545  S
In1184     O1195   2.222       .  S
In1184     O1189   2.244       .  S
In1184     O1191   2.248   1_545  S
In1184     O1192   2.258       .  S
In1184     O1193   2.220   1_545  S
In1184     O1196   2.221       .  S
C1185      O1191   1.266       .  A
C1185      O1193   1.261       .  A
C1185      C1370   1.476       .  S
O1186      C1194   1.261       .  A
O1187      C1194   1.267       .  A
C1188      O1195   1.262       .  A
C1188      O1189   1.266       .  A
C1188      C3020   1.474       .  S
C1190      O1192   1.267       .  A
C1190      O1196   1.261       .  A
C1190      C1381   1.479       .  S
C1194      C4428   1.474       .  S
In1197     O1199   2.230       .  S
In1197     O1200   2.266       .  S
In1197     O1208   2.233       .  S
In1197     O1202   2.263       .  S
In1197     O1204   2.259       .  S
In1197     O1205   2.261       .  S
In1197     O1206   2.228       .  S
In1197     O1209   2.226       .  S
C1198      O1204   1.266       .  A
C1198      O1206   1.261       .  A
C1198      C1315   1.480       .  S
O1199      C1207   1.261       .  A
O1200      C1207   1.266       .  A
C1201      O1208   1.262       .  A
C1201      O1202   1.265       .  A
C1201      C1337   1.482       .  S
C1203      O1205   1.266       .  A
C1203      O1209   1.261       .  A
C1203      C1293   1.479       .  S
C1207      C4802   1.483       .  S
In1210     O1212   2.219       .  S
In1210     O1213   2.264       .  S
In1210     O1221   2.238       .  S
In1210     O1215   2.253       .  S
In1210     O1217   2.254       .  S
In1210     O1218   2.257       .  S
In1210     O1219   2.225       .  S
In1210     O1222   2.223       .  S
C1211      O1217   1.266       .  A
C1211      O1219   1.261       .  A
C1211      C1282   1.476       .  S
O1212      C1220   1.261       .  A
O1213      C1220   1.266       .  A
C1214      O1221   1.263       .  A
C1214      O1215   1.265       .  A
C1214      C4758   1.482       .  S
C1216      O1218   1.266       .  A
C1216      O1222   1.261       .  A
C1216      C1480   1.478       .  S
C1220      C1326   1.479       .  S
In1223     O1225   2.228       .  S
In1223     O1226   2.260       .  S
In1223     O1234   2.236       .  S
In1223     O1228   2.255       .  S
In1223     O1230   2.257       .  S
In1223     O1231   2.261       .  S
In1223     O1232   2.225       .  S
In1223     O1235   2.232       .  S
C1224      O1230   1.265       .  A
C1224      O1232   1.260       .  A
C1224      C1304   1.477       .  S
O1225      C1233   1.261       .  A
O1226      C1233   1.266       .  A
C1227      O1234   1.263       .  A
C1227      O1228   1.265       .  A
C1227      C2514   1.481       .  S
C1229      O1231   1.265       .  A
C1229      O1235   1.261       .  A
C1229      C1414   1.482       .  S
C1233      C1249   1.480       .  S
In1236     O1238   2.223       .  S
In1236     O1239   2.260       .  S
In1236     O1247   2.238       .  S
In1236     O1241   2.242       .  S
In1236     O1243   2.258       .  S
In1236     O1244   2.254       .  S
In1236     O1245   2.229       .  S
In1236     O1248   2.216       .  S
C1237      O1243   1.265       .  A
C1237      O1245   1.261       .  A
C1237      C1260   1.479       .  S
O1238      C1246   1.261       .  A
O1239      C1246   1.266       .  A
C1240      O1247   1.263       .  A
C1240      O1241   1.265       .  A
C1240      C1502   1.478       .  S
C1242      O1244   1.266       .  A
C1242      O1248   1.261       .  A
C1242      C1271   1.475       .  S
C1246      C2448   1.479       .  S
C1249      C1250   1.406       .  A
C1249      C1254   1.407       .  A
C1250      C1251   1.396       .  A
C1250      H1263   1.083       .  S
C1251      C1252   1.399       .  A
C1251      H1264   1.084       .  S
C1252      C1253   1.402       .  A
C1252      C1255   1.443       .  S
C1253      C1254   1.404       .  A
C1253      H1265   1.084       .  S
C1254      H1266   1.082       .  S
C1255      C1256   1.208       .  T
C1256      C1257   1.443       .  S
C1257      C1258   1.402       .  A
C1257      C1262   1.399       .  A
C1258      C1259   1.403       .  A
C1258      H1267   1.084       .  S
C1259      C1260   1.407       .  A
C1259      H1268   1.083       .  S
C1260      C1261   1.406       .  A
C1261      C1262   1.397       .  A
C1261      H1269   1.083       .  S
C1262      H1270   1.084       .  S
C1271      C1272   1.406       .  A
C1271      C1276   1.406       .  A
C1272      C1273   1.401       .  A
C1272      H1285   1.083       .  S
C1273      C1274   1.401       .  A
C1273      H1286   1.084       .  S
C1274      C1275   1.398       .  A
C1274      C1277   1.437       .  S
C1275      C1276   1.394       .  A
C1275      H1287   1.083       .  S
C1276      H1288   1.083       .  S
C1277      C1278   1.205       .  T
C1278      C1279   1.437       .  S
C1279      C1280   1.400       .  A
C1279      C1284   1.399       .  A
C1280      C1281   1.400       .  A
C1280      H1289   1.083       .  S
C1281      C1282   1.406       .  A
C1281      H1290   1.083       .  S
C1282      C1283   1.406       .  A
C1283      C1284   1.396       .  A
C1283      H1291   1.083       .  S
C1284      H1292   1.083       .  S
C1293      C1294   1.406       .  A
C1293      C1298   1.407       .  A
C1294      C1295   1.395       .  A
C1294      H1307   1.083       .  S
C1295      C1296   1.398       .  A
C1295      H1308   1.084       .  S
C1296      C1297   1.402       .  A
C1296      C1299   1.441       .  S
C1297      C1298   1.403       .  A
C1297      H1309   1.083       .  S
C1298      H1310   1.083       .  S
C1299      C1300   1.207       .  T
C1300      C1301   1.441       .  S
C1301      C1302   1.401       .  A
C1301      C1306   1.399       .  A
C1302      C1303   1.401       .  A
C1302      H1311   1.083       .  S
C1303      C1304   1.405       .  A
C1303      H1312   1.083       .  S
C1304      C1305   1.407       .  A
C1305      C1306   1.396       .  A
C1305      H1313   1.082       .  S
C1306      H1314   1.084       .  S
C1315      C1316   1.406       .  A
C1315      C1320   1.406       .  A
C1316      C1317   1.397       .  A
C1316      H1329   1.083       .  S
C1317      C1318   1.399       .  A
C1317      H1330   1.083       .  S
C1318      C1319   1.401       .  A
C1318      C1321   1.442       .  S
C1319      C1320   1.402       .  A
C1319      H1331   1.084       .  S
C1320      H1332   1.083       .  S
C1321      C1322   1.207       .  T
C1322      C1323   1.442       .  S
C1323      C1324   1.398       .  A
C1323      C1328   1.403       .  A
C1324      C1325   1.395       .  A
C1324      H1333   1.084       .  S
C1325      C1326   1.406       .  A
C1325      H1334   1.083       .  S
C1326      C1327   1.407       .  A
C1327      C1328   1.404       .  A
C1327      H1335   1.082       .  S
C1328      H1336   1.083       .  S
C1337      C1338   1.406       .  A
C1337      C1342   1.407       .  A
C1338      C1339   1.398       .  A
C1338      H1351   1.083       .  S
C1339      C1340   1.399       .  A
C1339      H1352   1.084       .  S
C1340      C1341   1.403       .  A
C1340      C1343   1.446       .  S
C1341      C1342   1.404       .  A
C1341      H1353   1.083       .  S
C1342      H1354   1.083       .  S
C1343      C1344   1.210       .  T
C1344      C1345   1.445       .  S
C1345      C1346   1.402       .  A
C1345      C1350   1.400       .  A
C1346      C1347   1.403       .  A
C1346      H1355   1.084       .  S
C1347      C1348   1.406       .  A
C1347      H1356   1.083       .  S
C1348      C1349   1.407       .  A
C1349      C1350   1.398       .  A
C1349      H1357   1.083       .  S
C1350      H1358   1.084       .  S
C1359      C1360   1.407       .  A
C1359      C1364   1.407       .  A
C1360      C1361   1.395       .  A
C1360      H1373   1.083       .  S
C1361      C1362   1.398       .  A
C1361      H1374   1.084       .  S
C1362      C1363   1.402       .  A
C1362      C1365   1.440       .  S
C1363      C1364   1.403       .  A
C1363      H1375   1.083       .  S
C1364      H1376   1.083       .  S
C1365      C1366   1.206       .  T
C1366      C1367   1.440       .  S
C1367      C1368   1.399       .  A
C1367      C1372   1.401       .  A
C1368      C1369   1.396       .  A
C1368      H1377   1.083       .  S
C1369      C1370   1.406       .  A
C1369      H1378   1.083       .  S
C1370      C1371   1.405       .  A
C1371      C1372   1.400       .  A
C1371      H1379   1.083       .  S
C1372      H1380   1.084       .  S
C1381      C1382   1.406       .  A
C1381      C1386   1.406       .  A
C1382      C1383   1.396       .  A
C1382      H1395   1.083       .  S
C1383      C1384   1.399       .  A
C1383      H1396   1.084       .  S
C1384      C1385   1.402       .  A
C1384      C1387   1.442       .  S
C1385      C1386   1.403       .  A
C1385      H1397   1.083       .  S
C1386      H1398   1.083       .  S
C1387      C1388   1.208       .  T
C1388      C1389   1.442       .  S
C1389      C1390   1.402       .  A
C1389      C1394   1.399       .  A
C1390      C1391   1.402       .  A
C1390      H1399   1.084       .  S
C1391      C1392   1.406       .  A
C1391      H1400   1.083       .  S
C1392      C1393   1.406       .  A
C1393      C1394   1.397       .  A
C1393      H1401   1.083       .  S
C1394      H1402   1.083       .  S
C1403      C1404   1.407       .  A
C1403      C1408   1.407       .  A
C1404      C1405   1.402       .  A
C1404      H1417   1.083   1_565  S
C1405      C1406   1.401       .  A
C1405      H1418   1.084       .  S
C1406      C1407   1.401       .  A
C1406      C1409   1.446       .  S
C1407      C1408   1.401       .  A
C1407      H1419   1.083       .  S
C1408      H1420   1.083       .  S
C1409      C1410   1.210       .  T
C1410      C1411   1.445       .  S
C1411      C1412   1.403       .  A
C1411      C1416   1.399       .  A
C1412      C1413   1.404       .  A
C1412      H1421   1.083       .  S
C1413      C1414   1.407       .  A
C1413      H1422   1.082       .  S
C1414      C1415   1.406       .  A
C1415      C1416   1.397       .  A
C1415      H1423   1.083       .  S
C1416      H1424   1.084       .  S
C1425      C1426   1.406       .  A
C1425      C1430   1.406       .  A
C1426      C1427   1.401       .  A
C1426      H1439   1.083       .  S
C1427      C1428   1.401       .  A
C1427      H1440   1.083       .  S
C1428      C1429   1.399       .  A
C1428      C1431   1.439       .  S
C1429      C1430   1.395       .  A
C1429      H1441   1.084       .  S
C1430      H1442   1.083       .  S
C1431      C1432   1.206       .  T
C1432      C1433   1.439       .  S
C1433      C1434   1.398       .  A
C1433      C1438   1.401       .  A
C1434      C1435   1.395       .  A
C1434      H1443   1.083       .  S
C1435      C1436   1.406       .  A
C1435      H1444   1.083       .  S
C1436      C1437   1.406       .  A
C1437      C1438   1.402       .  A
C1437      H1445   1.083       .  S
C1438      H1446   1.084       .  S
C1447      C1448   1.407       .  A
C1447      C1452   1.406       .  A
C1448      C1449   1.404       .  A
C1448      H1461   1.083       .  S
C1449      C1450   1.403       .  A
C1449      H1462   1.083       .  S
C1450      C1451   1.399       .  A
C1450      C1453   1.445       .  S
C1451      C1452   1.397       .  A
C1451      H1463   1.084       .  S
C1452      H1464   1.083       .  S
C1453      C1454   1.209       .  T
C1454      C1455   1.445       .  S
C1455      C1456   1.399       .  A
C1455      C1460   1.403       .  A
C1456      C1457   1.397       .  A
C1456      H1465   1.084       .  S
C1457      C1458   1.407       .  A
C1457      H1466   1.083       .  S
C1458      C1459   1.407       .  A
C1459      C1460   1.405       .  A
C1459      H1467   1.083       .  S
C1460      H1468   1.083       .  S
C1469      C1470   1.406       .  A
C1469      C1474   1.406       .  A
C1470      C1471   1.398       .  A
C1470      H1483   1.083       .  S
C1471      C1472   1.400       .  A
C1471      H1484   1.083       .  S
C1472      C1473   1.400       .  A
C1472      C1475   1.441       .  S
C1473      C1474   1.401       .  A
C1473      H1485   1.084       .  S
C1474      H1486   1.083   1_565  S
C1475      C1476   1.207       .  T
C1476      C1477   1.441       .  S
C1477      C1478   1.402       .  A
C1477      C1482   1.398       .  A
C1478      C1479   1.402       .  A
C1478      H1487   1.083       .  S
C1479      C1480   1.406       .  A
C1479      H1488   1.083       .  S
C1480      C1481   1.406       .  A
C1481      C1482   1.396       .  A
C1481      H1489   1.083       .  S
C1482      H1490   1.084       .  S
C1491      C1492   1.407       .  A
C1491      C1496   1.406       .  A
C1492      C1493   1.403       .  A
C1492      H1505   1.083       .  S
C1493      C1494   1.402       .  A
C1493      H1506   1.083       .  S
C1494      C1495   1.398       .  A
C1494      C1497   1.440       .  S
C1495      C1496   1.395       .  A
C1495      H1507   1.084       .  S
C1496      H1508   1.083       .  S
C1497      C1498   1.206       .  T
C1498      C1499   1.440       .  S
C1499      C1500   1.400       .  A
C1499      C1504   1.400       .  A
C1500      C1501   1.398       .  A
C1500      H1509   1.084       .  S
C1501      C1502   1.406       .  A
C1501      H1510   1.083       .  S
C1502      C1503   1.406       .  A
C1503      C1504   1.400       .  A
C1503      H1511   1.083       .  S
C1504      H1512   1.083       .  S
C1513      C1514   1.406       .  A
C1513      C1518   1.406       .  A
C1514      C1515   1.402       .  A
C1514      H1527   1.083       .  S
C1515      C1516   1.402       .  A
C1515      H1528   1.083       .  S
C1516      C1517   1.399       .  A
C1516      C1519   1.443       .  S
C1517      C1518   1.397       .  A
C1517      H1529   1.084       .  S
C1518      H1530   1.083       .  S
C1519      C1520   1.208       .  T
C1520      C1521   1.443       .  S
C1521      C1522   1.399       .  A
C1521      C1526   1.402       .  A
C1522      C1523   1.397       .  A
C1522      H1531   1.084       .  S
C1523      C1524   1.407       .  A
C1523      H1532   1.083       .  S
C1524      C1525   1.406       .  A
C1525      C1526   1.403       .  A
C1525      H1533   1.083       .  S
C1526      H1534   1.083       .  S
C1535      C1536   1.406       .  A
C1535      C1540   1.406       .  A
C1536      C1537   1.403       .  A
C1536      H1549   1.083       .  S
C1537      C1538   1.402       .  A
C1537      H1550   1.084       .  S
C1538      C1539   1.398       .  A
C1538      C1541   1.440       .  S
C1539      C1540   1.395       .  A
C1539      H1551   1.084       .  S
C1540      H1552   1.083       .  S
C1541      C1542   1.206       .  T
C1542      C1543   1.441       .  S
C1543      C1544   1.399       .  A
C1543      C1548   1.401       .  A
C1544      C1545   1.397       .  A
C1544      H1553   1.083       .  S
C1545      C1546   1.406       .  A
C1545      H1554   1.083       .  S
C1546      C1547   1.406       .  A
C1547      C1548   1.402       .  A
C1547      H1555   1.083       .  S
C1548      H1556   1.084       .  S
C1557      C1558   1.406       .  A
C1557      C1562   1.406       .  A
C1558      C1559   1.401       .  A
C1558      H1571   1.083       .  S
C1559      C1560   1.401       .  A
C1559      H1572   1.084       .  S
C1560      C1561   1.398       .  A
C1560      C1563   1.437       .  S
C1561      C1562   1.394       .  A
C1561      H1573   1.084       .  S
C1562      H1574   1.083       .  S
C1563      C1564   1.205       .  T
C1564      C1565   1.437       .  S
C1565      C1566   1.399       .  A
C1565      C1570   1.400       .  A
C1566      C1567   1.395       .  A
C1566      H1575   1.084       .  S
C1567      C1568   1.405       .  A
C1567      H1576   1.083       .  S
C1568      C1569   1.406       .  A
C1569      C1570   1.400       .  A
C1569      H1577   1.083       .  S
C1570      H1578   1.083       .  S
C1579      C1580   1.407       .  A
C1579      C1584   1.407       .  A
C1580      C1581   1.396       .  A
C1580      H1593   1.083       .  S
C1581      C1582   1.398       .  A
C1581      H1594   1.084       .  S
C1582      C1583   1.404       .  A
C1582      C1585   1.446       .  S
C1583      C1584   1.406       .  A
C1583      H1595   1.083       .  S
C1584      H1596   1.082       .  S
C1585      C1586   1.210       .  T
C1586      C1587   1.447       .  S
C1587      C1588   1.402       .  A
C1587      C1592   1.400       .  A
C1588      C1589   1.403       .  A
C1588      H1597   1.083       .  S
C1589      C1590   1.406       .  A
C1589      H1598   1.083       .  S
C1590      C1591   1.408       .  A
C1591      C1592   1.399       .  A
C1591      H1599   1.082       .  S
C1592      H1600   1.084       .  S
C1601      C1602   1.407       .  A
C1601      C1606   1.406       .  A
C1602      C1603   1.398       .  A
C1602      H1615   1.083       .  S
C1603      C1604   1.399       .  A
C1603      H1616   1.083       .  S
C1604      C1605   1.402       .  A
C1604      C1607   1.445       .  S
C1605      C1606   1.403       .  A
C1605      H1617   1.083       .  S
C1606      H1618   1.083       .  S
C1607      C1608   1.209       .  T
C1608      C1609   1.444       .  S
C1609      C1610   1.403       .  A
C1609      C1614   1.399       .  A
C1610      C1611   1.404       .  A
C1610      H1619   1.083       .  S
C1611      C1612   1.406       .  A
C1611      H1620   1.082       .  S
C1612      C1613   1.406       .  A
C1613      C1614   1.396       .  A
C1613      H1621   1.083       .  S
C1614      H1622   1.084       .  S
C1623      C1624   1.407       .  A
C1623      C1628   1.406       .  A
C1624      C1625   1.397       .  A
C1624      H1637   1.083       .  S
C1625      C1626   1.399       .  A
C1625      H1638   1.084       .  S
C1626      C1627   1.402       .  A
C1626      C1629   1.444       .  S
C1627      C1628   1.403       .  A
C1627      H1639   1.083       .  S
C1628      H1640   1.083       .  S
C1629      C1630   1.208       .  T
C1630      C1631   1.444       .  S
C1631      C1632   1.402       .  A
C1631      C1636   1.399       .  A
C1632      C1633   1.403       .  A
C1632      H1641   1.083       .  S
C1633      C1634   1.407       .  A
C1633      H1642   1.083       .  S
C1634      C1635   1.406       .  A
C1635      C1636   1.397       .  A
C1635      H1643   1.083       .  S
C1636      H1644   1.084       .  S
C1645      C1646   1.406       .  A
C1645      C1650   1.406       .  A
C1646      C1647   1.396       .  A
C1646      H1659   1.083       .  S
C1647      C1648   1.399       .  A
C1647      H1660   1.083       .  S
C1648      C1649   1.401       .  A
C1648      C1651   1.440       .  S
C1649      C1650   1.401       .  A
C1649      H1661   1.084       .  S
C1650      H1662   1.083       .  S
C1651      C1652   1.206       .  T
C1652      C1653   1.440       .  S
C1653      C1654   1.401       .  A
C1653      C1658   1.398       .  A
C1654      C1655   1.402       .  A
C1654      H1663   1.083       .  S
C1655      C1656   1.406       .  A
C1655      H1664   1.083       .  S
C1656      C1657   1.407       .  A
C1657      C1658   1.396       .  A
C1657      H1665   1.083       .  S
C1658      H1666   1.084       .  S
C1667      C1668   1.406       .  A
C1667      C1672   1.407       .  A
C1668      C1669   1.396       .  A
C1668      H1681   1.083       .  S
C1669      C1670   1.398       .  A
C1669      H1682   1.084       .  S
C1670      C1671   1.403       .  A
C1670      C1673   1.445       .  S
C1671      C1672   1.405       .  A
C1671      H1683   1.083       .  S
C1672      H1684   1.083       .  S
C1673      C1674   1.209       .  T
C1674      C1675   1.445       .  S
C1675      C1676   1.402       .  A
C1675      C1680   1.400       .  A
C1676      C1677   1.403       .  A
C1676      H1685   1.083       .  S
C1677      C1678   1.407       .  A
C1677      H1686   1.082       .  S
C1678      C1679   1.406       .  A
C1679      C1680   1.397       .  A
C1679      H1687   1.083       .  S
C1680      H1688   1.084       .  S
C1689      C1690   1.407       .  A
C1689      C1694   1.406       .  A
C1690      C1691   1.398       .  A
C1690      H1703   1.083       .  S
C1691      C1692   1.400       .  A
C1691      H1704   1.084       .  S
C1692      C1693   1.401       .  A
C1692      C1695   1.441       .  S
C1693      C1694   1.401       .  A
C1693      H1705   1.084       .  S
C1694      H1706   1.083       .  S
C1695      C1696   1.207       .  T
C1696      C1697   1.441       .  S
C1697      C1698   1.401       .  A
C1697      C1702   1.399       .  A
C1698      C1699   1.401       .  A
C1698      H1707   1.084       .  S
C1699      C1700   1.407       .  A
C1699      H1708   1.083       .  S
C1700      C1701   1.406       .  A
C1701      C1702   1.397       .  A
C1701      H1709   1.083       .  S
C1702      H1710   1.084       .  S
C1711      C1712   1.406       .  A
C1711      C1716   1.406       .  A
C1712      C1713   1.396       .  A
C1712      H1725   1.083       .  S
C1713      C1714   1.399       .  A
C1713      H1726   1.084       .  S
C1714      C1715   1.402       .  A
C1714      C1717   1.442       .  S
C1715      C1716   1.403       .  A
C1715      H1727   1.083       .  S
C1716      H1728   1.083       .  S
C1717      C1718   1.208       .  T
C1718      C1719   1.442       .  S
C1719      C1720   1.402       .  A
C1719      C1724   1.399       .  A
C1720      C1721   1.404       .  A
C1720      H1729   1.084       .  S
C1721      C1722   1.407       .  A
C1721      H1730   1.082       .  S
C1722      C1723   1.406       .  A
C1723      C1724   1.396       .  A
C1723      H1731   1.083       .  S
C1724      H1732   1.084       .  S
C1733      C1734   1.407       .  A
C1733      C1738   1.407       .  A
C1734      C1735   1.404       .  A
C1734      H1747   1.083       .  S
C1735      C1736   1.402       .  A
C1735      H1748   1.083       .  S
C1736      C1737   1.400       .  A
C1736      C1739   1.447       .  S
C1737      C1738   1.399       .  A
C1737      H1749   1.083       .  S
C1738      H1750   1.083       .  S
C1739      C1740   1.210       .  T
C1740      C1741   1.446       .  S
C1741      C1742   1.404       .  A
C1741      C1746   1.399       .  A
C1742      C1743   1.406       .  A
C1742      H1751   1.083       .  S
C1743      C1744   1.407       .  A
C1743      H1752   1.082       .  S
C1744      C1745   1.407       .  A
C1745      C1746   1.397       .  A
C1745      H1753   1.083       .  S
C1746      H1754   1.084       .  S
C1755      C1756   1.406       .  A
C1755      C1760   1.406       .  A
C1756      C1757   1.397       .  A
C1756      H1769   1.083       .  S
C1757      C1758   1.399       .  A
C1757      H1770   1.084       .  S
C1758      C1759   1.401       .  A
C1758      C1761   1.441       .  S
C1759      C1760   1.402       .  A
C1759      H1771   1.084       .  S
C1760      H1772   1.083       .  S
C1761      C1762   1.207       .  T
C1762      C1763   1.442       .  S
C1763      C1764   1.401       .  A
C1763      C1768   1.399       .  A
C1764      C1765   1.401       .  A
C1764      H1773   1.083       .  S
C1765      C1766   1.407       .  A
C1765      H1774   1.083       .  S
C1766      C1767   1.406       .  A
C1767      C1768   1.398       .  A
C1767      H1775   1.083       .  S
C1768      H1776   1.084       .  S
C1777      C1778   1.406       .  A
C1777      C1782   1.407       .  A
C1778      C1779   1.395       .  A
C1778      H1791   1.083       .  S
C1779      C1780   1.398       .  A
C1779      H1792   1.084       .  S
C1780      C1781   1.403       .  A
C1780      C1783   1.444       .  S
C1781      C1782   1.405       .  A
C1781      H1793   1.083       .  S
C1782      H1794   1.082       .  S
C1783      C1784   1.209       .  T
C1784      C1785   1.444       .  S
C1785      C1786   1.403       .  A
C1785      C1790   1.399       .  A
C1786      C1787   1.404       .  A
C1786      H1795   1.083       .  S
C1787      C1788   1.407       .  A
C1787      H1796   1.083       .  S
C1788      C1789   1.406       .  A
C1789      C1790   1.396       .  A
C1789      H1797   1.083       .  S
C1790      H1798   1.085       .  S
C1799      C1800   1.406       .  A
C1799      C1804   1.408       .  A
C1800      C1801   1.396       .  A
C1800      H1813   1.083       .  S
C1801      C1802   1.398       .  A
C1801      H1814   1.084       .  S
C1802      C1803   1.403       .  A
C1802      C1805   1.444       .  S
C1803      C1804   1.405       .  A
C1803      H1815   1.083       .  S
C1804      H1816   1.082       .  S
C1805      C1806   1.209       .  T
C1806      C1807   1.444       .  S
C1807      C1808   1.399       .  A
C1807      C1812   1.402       .  A
C1808      C1809   1.396       .  A
C1808      H1817   1.084       .  S
C1809      C1810   1.406       .  A
C1809      H1818   1.083       .  S
C1810      C1811   1.407       .  A
C1811      C1812   1.403       .  A
C1811      H1819   1.083       .  S
C1812      H1820   1.083       .  S
C1821      C1822   1.407       .  A
C1821      C1826   1.406       .  A
C1822      C1823   1.403       .  A
C1822      H1835   1.083       .  S
C1823      C1824   1.402       .  A
C1823      H1836   1.083       .  S
C1824      C1825   1.399       .  A
C1824      C1827   1.443       .  S
C1825      C1826   1.397       .  A
C1825      H1837   1.084       .  S
C1826      H1838   1.083       .  S
C1827      C1828   1.208       .  T
C1828      C1829   1.443       .  S
C1829      C1830   1.400       .  A
C1829      C1834   1.401       .  A
C1830      C1831   1.399       .  A
C1830      H1839   1.084       .  S
C1831      C1832   1.406       .  A
C1831      H1840   1.083       .  S
C1832      C1833   1.407       .  A
C1833      C1834   1.402       .  A
C1833      H1841   1.083       .  S
C1834      H1842   1.083       .  S
C1843      C1844   1.407       .  A
C1843      C1848   1.406       .  A
C1844      C1845   1.404       .  A
C1844      H1857   1.082       .  S
C1845      C1846   1.403       .  A
C1845      H1858   1.084       .  S
C1846      C1847   1.399       .  A
C1846      C1849   1.444       .  S
C1847      C1848   1.396       .  A
C1847      H1859   1.084       .  S
C1848      H1860   1.083       .  S
C1849      C1850   1.208       .  T
C1850      C1851   1.444       .  S
C1851      C1852   1.400       .  A
C1851      C1856   1.401       .  A
C1852      C1853   1.398       .  A
C1852      H1861   1.084       .  S
C1853      C1854   1.406       .  A
C1853      H1862   1.083       .  S
C1854      C1855   1.407       .  A
C1855      C1856   1.403       .  A
C1855      H1863   1.083       .  S
C1856      H1864   1.083       .  S
C1865      C1866   1.407       .  A
C1865      C1870   1.406       .  A
C1866      C1867   1.405       .  A
C1866      H1879   1.082       .  S
C1867      C1868   1.403       .  A
C1867      H1880   1.083       .  S
C1868      C1869   1.398       .  A
C1868      C1871   1.445       .  S
C1869      C1870   1.396       .  A
C1869      H1881   1.084       .  S
C1870      H1882   1.083       .  S
C1871      C1872   1.209       .  T
C1872      C1873   1.445       .  S
C1873      C1874   1.401       .  A
C1873      C1878   1.401       .  A
C1874      C1875   1.399       .  A
C1874      H1883   1.083       .  S
C1875      C1876   1.407       .  A
C1875      H1884   1.083       .  S
C1876      C1877   1.406       .  A
C1877      C1878   1.402       .  A
C1877      H1885   1.083       .  S
C1878      H1886   1.084       .  S
C1887      C1888   1.406       .  A
C1887      C1892   1.407       .  A
C1888      C1889   1.402       .  A
C1888      H1901   1.083   1_655  S
C1889      C1890   1.402       .  A
C1889      H1902   1.084       .  S
C1890      C1891   1.400       .  A
C1890      C1893   1.444       .  S
C1891      C1892   1.398       .  A
C1891      H1903   1.083       .  S
C1892      H1904   1.083       .  S
C1893      C1894   1.209       .  T
C1894      C1895   1.444       .  S
C1895      C1896   1.399       .  A
C1895      C1900   1.402       .  A
C1896      C1897   1.397       .  A
C1896      H1905   1.084       .  S
C1897      C1898   1.406       .  A
C1897      H1906   1.083       .  S
C1898      C1899   1.407       .  A
C1899      C1900   1.404       .  A
C1899      H1907   1.082       .  S
C1900      H1908   1.083       .  S
C1909      C1910   1.406       .  A
C1909      C1914   1.407       .  A
C1910      C1911   1.396       .  A
C1910      H1923   1.083       .  S
C1911      C1912   1.399       .  A
C1911      H1924   1.084       .  S
C1912      C1913   1.403       .  A
C1912      C1915   1.443       .  S
C1913      C1914   1.404       .  A
C1913      H1925   1.083       .  S
C1914      H1926   1.083       .  S
C1915      C1916   1.208       .  T
C1916      C1917   1.443       .  S
C1917      C1918   1.402       .  A
C1917      C1922   1.399       .  A
C1918      C1919   1.404       .  A
C1918      H1927   1.083       .  S
C1919      C1920   1.407       .  A
C1919      H1928   1.083       .  S
C1920      C1921   1.406       .  A
C1921      C1922   1.396       .  A
C1921      H1929   1.083       .  S
C1922      H1930   1.084       .  S
C1931      C1932   1.407       .  A
C1931      C1936   1.406       .  A
C1932      C1933   1.403       .  A
C1932      H1945   1.083       .  S
C1933      C1934   1.401       .  A
C1933      H1946   1.083       .  S
C1934      C1935   1.400       .  A
C1934      C1937   1.444       .  S
C1935      C1936   1.398       .  A
C1935      H1947   1.084       .  S
C1936      H1948   1.083       .  S
C1937      C1938   1.208       .  T
C1938      C1939   1.443       .  S
C1939      C1940   1.398       .  A
C1939      C1944   1.403       .  A
C1940      C1941   1.395       .  A
C1940      H1949   1.084       .  S
C1941      C1942   1.405       .  A
C1941      H1950   1.083       .  S
C1942      C1943   1.408       .  A
C1943      C1944   1.404       .  A
C1943      H1951   1.082       .  S
C1944      H1952   1.083       .  S
C1953      C1954   1.407       .  A
C1953      C1958   1.406       .  A
C1954      C1955   1.396       .  A
C1954      H1967   1.083       .  S
C1955      C1956   1.398       .  A
C1955      H1968   1.084       .  S
C1956      C1957   1.402       .  A
C1956      C1959   1.442       .  S
C1957      C1958   1.403       .  A
C1957      H1969   1.083       .  S
C1958      H1970   1.083       .  S
C1959      C1960   1.208       .  T
C1960      C1961   1.442       .  S
C1961      C1962   1.401       .  A
C1961      C1966   1.399       .  A
C1962      C1963   1.402       .  A
C1962      H1971   1.084       .  S
C1963      C1964   1.406       .  A
C1963      H1972   1.083       .  S
C1964      C1965   1.407       .  A
C1965      C1966   1.397       .  A
C1965      H1973   1.083       .  S
C1966      H1974   1.084       .  S
C1975      C1976   1.407       .  A
C1975      C1980   1.407       .  A
C1976      C1977   1.404       .  A
C1976      H1989   1.083       .  S
C1977      C1978   1.402       .  A
C1977      H1990   1.084       .  S
C1978      C1979   1.398       .  A
C1978      C1981   1.443       .  S
C1979      C1980   1.396       .  A
C1979      H1991   1.084       .  S
C1980      H1992   1.083       .  S
C1981      C1982   1.208       .  T
C1982      C1983   1.442       .  S
C1983      C1984   1.398       .  A
C1983      C1988   1.403       .  A
C1984      C1985   1.395       .  A
C1984      H1993   1.084       .  S
C1985      C1986   1.406       .  A
C1985      H1994   1.083       .  S
C1986      C1987   1.407       .  A
C1987      C1988   1.404       .  A
C1987      H1995   1.083       .  S
C1988      H1996   1.083       .  S
C1997      C1998   1.407       .  A
C1997      C2002   1.406       .  A
C1998      C1999   1.404       .  A
C1998      H2011   1.083       .  S
C1999      C2000   1.403       .  A
C1999      H2012   1.083       .  S
C2000      C2001   1.398       .  A
C2000      C2003   1.443       .  S
C2001      C2002   1.396       .  A
C2001      H2013   1.084       .  S
C2002      H2014   1.083       .  S
C2003      C2004   1.208       .  T
C2004      C2005   1.444       .  S
C2005      C2006   1.401       .  A
C2005      C2010   1.401       .  A
C2006      C2007   1.399       .  A
C2006      H2015   1.083       .  S
C2007      C2008   1.407       .  A
C2007      H2016   1.083       .  S
C2008      C2009   1.406       .  A
C2009      C2010   1.401       .  A
C2009      H2017   1.083       .  S
C2010      H2018   1.084       .  S
C2019      C2020   1.406       .  A
C2019      C2024   1.407       .  A
C2020      C2021   1.402       .  A
C2020      H2033   1.084       .  S
C2021      C2022   1.401       .  A
C2021      H2034   1.083       .  S
C2022      C2023   1.400       .  A
C2022      C2025   1.444       .  S
C2023      C2024   1.398       .  A
C2023      H2035   1.084       .  S
C2024      H2036   1.083       .  S
C2025      C2026   1.208       .  T
C2026      C2027   1.443       .  S
C2027      C2028   1.404       .  A
C2027      C2032   1.397       .  A
C2028      C2029   1.405       .  A
C2028      H2037   1.083       .  S
C2029      C2030   1.408       .  A
C2029      H2038   1.082       .  S
C2030      C2031   1.406       .  A
C2031      C2032   1.394       .  A
C2031      H2039   1.083       .  S
C2032      H2040   1.084       .  S
C2041      C2042   1.407       .  A
C2041      C2046   1.406       .  A
C2042      C2043   1.396       .  A
C2042      H2055   1.083       .  S
C2043      C2044   1.399       .  A
C2043      H2056   1.084       .  S
C2044      C2045   1.401       .  A
C2044      C2047   1.441       .  S
C2045      C2046   1.402       .  A
C2045      H2057   1.083       .  S
C2046      H2058   1.084       .  S
C2047      C2048   1.207       .  T
C2048      C2049   1.441       .  S
C2049      C2050   1.402       .  A
C2049      C2054   1.399       .  A
C2050      C2051   1.402       .  A
C2050      H2059   1.084       .  S
C2051      C2052   1.406       .  A
C2051      H2060   1.083       .  S
C2052      C2053   1.407       .  A
C2053      C2054   1.396       .  A
C2053      H2061   1.083       .  S
C2054      H2062   1.083       .  S
C2063      C2064   1.407       .  A
C2063      C2068   1.406       .  A
C2064      C2065   1.398       .  A
C2064      H2077   1.083       .  S
C2065      C2066   1.400       .  A
C2065      H2078   1.084       .  S
C2066      C2067   1.401       .  A
C2066      C2069   1.443       .  S
C2067      C2068   1.401       .  A
C2067      H2079   1.084       .  S
C2068      H2080   1.083       .  S
C2069      C2070   1.208       .  T
C2070      C2071   1.443       .  S
C2071      C2072   1.403       .  A
C2071      C2076   1.397       .  A
C2072      C2073   1.405       .  A
C2072      H2081   1.083       .  S
C2073      C2074   1.407       .  A
C2073      H2082   1.083       .  S
C2074      C2075   1.407       .  A
C2075      C2076   1.395       .  A
C2075      H2083   1.083       .  S
C2076      H2084   1.084       .  S
C2085      C2086   1.406       .  A
C2085      C2090   1.407       .  A
C2086      C2087   1.397       .  A
C2086      H2099   1.083       .  S
C2087      C2088   1.399       .  A
C2087      H2100   1.084       .  S
C2088      C2089   1.402       .  A
C2088      C2091   1.444       .  S
C2089      C2090   1.403       .  A
C2089      H2101   1.084       .  S
C2090      H2102   1.083       .  S
C2091      C2092   1.209       .  T
C2092      C2093   1.444       .  S
C2093      C2094   1.402       .  A
C2093      C2098   1.400       .  A
C2094      C2095   1.402       .  A
C2094      H2103   1.083       .  S
C2095      C2096   1.407       .  A
C2095      H2104   1.083       .  S
C2096      C2097   1.406       .  A
C2097      C2098   1.398       .  A
C2097      H2105   1.083       .  S
C2098      H2106   1.084       .  S
C2107      C2108   1.406       .  A
C2107      C2112   1.406       .  A
C2108      C2109   1.396       .  A
C2108      H2121   1.083       .  S
C2109      C2110   1.399       .  A
C2109      H2122   1.084       .  S
C2110      C2111   1.402       .  A
C2110      C2113   1.441       .  S
C2111      C2112   1.402       .  A
C2111      H2123   1.083       .  S
C2112      H2124   1.083       .  S
C2113      C2114   1.207       .  T
C2114      C2115   1.441       .  S
C2115      C2116   1.402       .  A
C2115      C2120   1.398       .  A
C2116      C2117   1.403       .  A
C2116      H2125   1.083       .  S
C2117      C2118   1.406       .  A
C2117      H2126   1.082       .  S
C2118      C2119   1.406       .  A
C2119      C2120   1.396       .  A
C2119      H2127   1.083       .  S
C2120      H2128   1.084       .  S
C2129      C2130   1.406       .  A
C2129      C2134   1.406       .  A
C2130      C2131   1.401       .  A
C2130      H2143   1.083       .  S
C2131      C2132   1.401       .  A
C2131      H2144   1.084       .  S
C2132      C2133   1.399       .  A
C2132      C2135   1.439       .  S
C2133      C2134   1.396       .  A
C2133      H2145   1.083       .  S
C2134      H2146   1.083       .  S
C2135      C2136   1.206       .  T
C2136      C2137   1.439       .  S
C2137      C2138   1.402       .  A
C2137      C2142   1.398       .  A
C2138      C2139   1.402       .  A
C2138      H2147   1.083       .  S
C2139      C2140   1.406       .  A
C2139      H2148   1.083       .  S
C2140      C2141   1.406       .  A
C2141      C2142   1.394       .  A
C2141      H2149   1.083       .  S
C2142      H2150   1.084       .  S
C2151      C2152   1.406       .  A
C2151      C2156   1.407       .  A
C2152      C2153   1.403       .  A
C2152      H2165   1.083       .  S
C2153      C2154   1.402       .  A
C2153      H2166   1.084       .  S
C2154      C2155   1.400       .  A
C2154      C2157   1.445       .  S
C2155      C2156   1.398       .  A
C2155      H2167   1.084       .  S
C2156      H2168   1.083       .  S
C2157      C2158   1.209       .  T
C2158      C2159   1.445       .  S
C2159      C2160   1.400       .  A
C2159      C2164   1.402       .  A
C2160      C2161   1.398       .  A
C2160      H2169   1.084       .  S
C2161      C2162   1.406       .  A
C2161      H2170   1.083       .  S
C2162      C2163   1.407       .  A
C2163      C2164   1.403       .  A
C2163      H2171   1.083   1_655  S
C2164      H2172   1.083       .  S
C2173      C2174   1.406       .  A
C2173      C2178   1.406       .  A
C2174      C2175   1.402       .  A
C2174      H2187   1.083       .  S
C2175      C2176   1.401       .  A
C2175      H2188   1.083       .  S
C2176      C2177   1.399       .  A
C2176      C2179   1.441       .  S
C2177      C2178   1.397       .  A
C2177      H2189   1.084       .  S
C2178      H2190   1.083       .  S
C2179      C2180   1.207       .  T
C2180      C2181   1.441       .  S
C2181      C2182   1.398       .  A
C2181      C2186   1.402       .  A
C2182      C2183   1.395       .  A
C2182      H2191   1.083       .  S
C2183      C2184   1.406       .  A
C2183      H2192   1.083       .  S
C2184      C2185   1.406       .  A
C2185      C2186   1.403       .  A
C2185      H2193   1.083       .  S
C2186      H2194   1.084       .  S
C2195      C2196   1.406       .  A
C2195      C2200   1.407       .  A
C2196      C2197   1.395       .  A
C2196      H2209   1.083       .  S
C2197      C2198   1.399       .  A
C2197      H2210   1.083       .  S
C2198      C2199   1.401       .  A
C2198      C2201   1.441       .  S
C2199      C2200   1.402       .  A
C2199      H2211   1.083       .  S
C2200      H2212   1.083       .  S
C2201      C2202   1.206       .  T
C2202      C2203   1.440       .  S
C2203      C2204   1.401       .  A
C2203      C2208   1.399       .  A
C2204      C2205   1.402       .  A
C2204      H2213   1.083       .  S
C2205      C2206   1.406       .  A
C2205      H2214   1.083       .  S
C2206      C2207   1.406       .  A
C2207      C2208   1.396       .  A
C2207      H2215   1.083       .  S
C2208      H2216   1.084       .  S
C2217      C2218   1.406       .  A
C2217      C2222   1.407       .  A
C2218      C2219   1.396       .  A
C2218      H2231   1.083       .  S
C2219      C2220   1.399       .  A
C2219      H2232   1.084       .  S
C2220      C2221   1.402       .  A
C2220      C2223   1.442       .  S
C2221      C2222   1.403       .  A
C2221      H2233   1.083       .  S
C2222      H2234   1.083       .  S
C2223      C2224   1.207       .  T
C2224      C2225   1.442       .  S
C2225      C2226   1.401       .  A
C2225      C2230   1.400       .  A
C2226      C2227   1.401       .  A
C2226      H2235   1.083       .  S
C2227      C2228   1.406       .  A
C2227      H2236   1.083       .  S
C2228      C2229   1.406       .  A
C2229      C2230   1.398       .  A
C2229      H2237   1.083       .  S
C2230      H2238   1.084       .  S
C2239      C2240   1.407       .  A
C2239      C2244   1.407       .  A
C2240      C2241   1.404       .  A
C2240      H2253   1.082       .  S
C2241      C2242   1.403       .  A
C2241      H2254   1.084       .  S
C2242      C2243   1.399       .  A
C2242      C2245   1.444       .  S
C2243      C2244   1.397       .  A
C2243      H2255   1.083       .  S
C2244      H2256   1.083       .  S
C2245      C2246   1.208       .  T
C2246      C2247   1.444       .  S
C2247      C2248   1.400       .  A
C2247      C2252   1.402       .  A
C2248      C2249   1.398       .  A
C2248      H2257   1.084       .  S
C2249      C2250   1.407       .  A
C2249      H2258   1.082       .  S
C2250      C2251   1.406       .  A
C2251      C2252   1.402       .  A
C2251      H2259   1.083       .  S
C2252      H2260   1.083       .  S
C2261      C2262   1.406       .  A
C2261      C2266   1.407       .  A
C2262      C2263   1.398       .  A
C2262      H2275   1.083       .  S
C2263      C2264   1.400       .  A
C2263      H2276   1.084       .  S
C2264      C2265   1.402       .  A
C2264      C2267   1.445       .  S
C2265      C2266   1.403       .  A
C2265      H2277   1.083       .  S
C2266      H2278   1.083       .  S
C2267      C2268   1.209       .  T
C2268      C2269   1.445       .  S
C2269      C2270   1.402       .  A
C2269      C2274   1.400       .  A
C2270      C2271   1.403       .  A
C2270      H2279   1.083       .  S
C2271      C2272   1.407       .  A
C2271      H2280   1.083       .  S
C2272      C2273   1.406       .  A
C2273      C2274   1.398       .  A
C2273      H2281   1.083       .  S
C2274      H2282   1.084       .  S
C2283      C2284   1.407       .  A
C2283      C2288   1.406       .  A
C2284      C2285   1.404       .  A
C2284      H2297   1.083       .  S
C2285      C2286   1.402       .  A
C2285      H2298   1.083       .  S
C2286      C2287   1.399       .  A
C2286      C2289   1.445       .  S
C2287      C2288   1.397       .  A
C2287      H2299   1.084       .  S
C2288      H2300   1.083       .  S
C2289      C2290   1.209       .  T
C2290      C2291   1.445       .  S
C2291      C2292   1.400       .  A
C2291      C2296   1.402       .  A
C2292      C2293   1.398       .  A
C2292      H2301   1.084       .  S
C2293      C2294   1.406       .  A
C2293      H2302   1.083       .  S
C2294      C2295   1.408       .  A
C2295      C2296   1.403       .  A
C2295      H2303   1.083       .  S
C2296      H2304   1.083       .  S
C2305      C2306   1.406       .  A
C2305      C2310   1.407       .  A
C2306      C2307   1.397       .  A
C2306      H2319   1.083       .  S
C2307      C2308   1.399       .  A
C2307      H2320   1.084       .  S
C2308      C2309   1.402       .  A
C2308      C2311   1.443       .  S
C2309      C2310   1.403       .  A
C2309      H2321   1.083       .  S
C2310      H2322   1.083       .  S
C2311      C2312   1.208       .  T
C2312      C2313   1.443       .  S
C2313      C2314   1.402       .  A
C2313      C2318   1.399       .  A
C2314      C2315   1.404       .  A
C2314      H2323   1.083       .  S
C2315      C2316   1.407       .  A
C2315      H2324   1.083       .  S
C2316      C2317   1.406       .  A
C2317      C2318   1.396       .  A
C2317      H2325   1.083       .  S
C2318      H2326   1.084       .  S
C2327      C2328   1.407       .  A
C2327      C2332   1.407       .  A
C2328      C2329   1.402       .  A
C2328      H2341   1.083       .  S
C2329      C2330   1.402       .  A
C2329      H2342   1.083       .  S
C2330      C2331   1.400       .  A
C2330      C2333   1.445       .  S
C2331      C2332   1.399       .  A
C2331      H2343   1.084       .  S
C2332      H2344   1.083       .  S
C2333      C2334   1.209       .  T
C2334      C2335   1.444       .  S
C2335      C2336   1.399       .  A
C2335      C2340   1.402       .  A
C2336      C2337   1.397       .  A
C2336      H2345   1.084       .  S
C2337      C2338   1.406       .  A
C2337      H2346   1.083       .  S
C2338      C2339   1.407       .  A
C2339      C2340   1.404       .  A
C2339      H2347   1.083       .  S
C2340      H2348   1.083       .  S
C2349      C2350   1.406       .  A
C2349      C2354   1.407       .  A
C2350      C2351   1.403       .  A
C2350      H2363   1.083       .  S
C2351      C2352   1.402       .  A
C2351      H2364   1.084       .  S
C2352      C2353   1.400       .  A
C2352      C2355   1.445       .  S
C2353      C2354   1.398       .  A
C2353      H2365   1.084       .  S
C2354      H2366   1.083       .  S
C2355      C2356   1.209       .  T
C2356      C2357   1.445       .  S
C2357      C2358   1.398       .  A
C2357      C2362   1.404       .  A
C2358      C2359   1.395       .  A
C2358      H2367   1.084       .  S
C2359      C2360   1.406       .  A
C2359      H2368   1.083       .  S
C2360      C2361   1.407       .  A
C2361      C2362   1.406       .  A
C2361      H2369   1.082       .  S
C2362      H2370   1.083       .  S
C2371      C2372   1.406       .  A
C2371      C2376   1.407       .  A
C2372      C2373   1.395       .  A
C2372      H2385   1.083       .  S
C2373      C2374   1.398       .  A
C2373      H2386   1.084       .  S
C2374      C2375   1.402       .  A
C2374      C2377   1.443       .  S
C2375      C2376   1.404       .  A
C2375      H2387   1.083       .  S
C2376      H2388   1.082       .  S
C2377      C2378   1.208       .  T
C2378      C2379   1.443       .  S
C2379      C2380   1.402       .  A
C2379      C2384   1.399       .  A
C2380      C2381   1.404       .  A
C2380      H2389   1.083       .  S
C2381      C2382   1.407       .  A
C2381      H2390   1.083       .  S
C2382      C2383   1.406       .  A
C2383      C2384   1.396       .  A
C2383      H2391   1.083       .  S
C2384      H2392   1.084       .  S
C2393      C2394   1.406       .  A
C2393      C2398   1.406       .  A
C2394      C2395   1.397       .  A
C2394      H2407   1.083       .  S
C2395      C2396   1.399       .  A
C2395      H2408   1.084       .  S
C2396      C2397   1.402       .  A
C2396      C2399   1.443       .  S
C2397      C2398   1.402       .  A
C2397      H2409   1.083       .  S
C2398      H2410   1.083   1_655  S
C2399      C2400   1.208       .  T
C2400      C2401   1.444       .  S
C2401      C2402   1.402       .  A
C2401      C2406   1.399       .  A
C2402      C2403   1.403       .  A
C2402      H2411   1.084       .  S
C2403      C2404   1.407       .  A
C2403      H2412   1.083       .  S
C2404      C2405   1.407       .  A
C2405      C2406   1.398       .  A
C2405      H2413   1.083       .  S
C2406      H2414   1.083       .  S
C2415      C2416   1.407       .  A
C2415      C2420   1.407       .  A
C2416      C2417   1.398       .  A
C2416      H2429   1.083       .  S
C2417      C2418   1.399       .  A
C2417      H2430   1.084       .  S
C2418      C2419   1.403       .  A
C2418      C2421   1.446       .  S
C2419      C2420   1.403       .  A
C2419      H2431   1.084       .  S
C2420      H2432   1.083       .  S
C2421      C2422   1.210       .  T
C2422      C2423   1.446       .  S
C2423      C2424   1.402       .  A
C2423      C2428   1.401       .  A
C2424      C2425   1.402       .  A
C2424      H2433   1.084       .  S
C2425      C2426   1.406       .  A
C2425      H2434   1.083       .  S
C2426      C2427   1.407       .  A
C2427      C2428   1.400       .  A
C2427      H2435   1.083       .  S
C2428      H2436   1.084       .  S
C2437      C2438   1.406       .  A
C2437      C2442   1.406       .  A
C2438      C2439   1.400       .  A
C2438      H2451   1.083       .  S
C2439      C2440   1.401       .  A
C2439      H2452   1.083       .  S
C2440      C2441   1.400       .  A
C2440      C2443   1.442       .  S
C2441      C2442   1.399       .  A
C2441      H2453   1.084       .  S
C2442      H2454   1.083       .  S
C2443      C2444   1.207       .  T
C2444      C2445   1.442       .  S
C2445      C2446   1.399       .  A
C2445      C2450   1.402       .  A
C2446      C2447   1.396       .  A
C2446      H2455   1.084       .  S
C2447      C2448   1.406       .  A
C2447      H2456   1.083       .  S
C2448      C2449   1.406       .  A
C2449      C2450   1.403       .  A
C2449      H2457   1.083       .  S
C2450      H2458   1.084       .  S
C2459      C2460   1.407       .  A
C2459      C2464   1.406       .  A
C2460      C2461   1.405       .  A
C2460      H2473   1.082       .  S
C2461      C2462   1.403       .  A
C2461      H2474   1.084       .  S
C2462      C2463   1.400       .  A
C2462      C2465   1.447       .  S
C2463      C2464   1.398       .  A
C2463      H2475   1.084       .  S
C2464      H2476   1.083       .  S
C2465      C2466   1.210       .  T
C2466      C2467   1.447       .  S
C2467      C2468   1.400       .  A
C2467      C2472   1.402       .  A
C2468      C2469   1.399       .  A
C2468      H2477   1.084       .  S
C2469      C2470   1.407       .  A
C2469      H2478   1.083       .  S
C2470      C2471   1.407       .  A
C2471      C2472   1.404       .  A
C2471      H2479   1.083       .  S
C2472      H2480   1.083       .  S
C2481      C2482   1.407       .  A
C2481      C2486   1.406       .  A
C2482      C2483   1.403       .  A
C2482      H2495   1.083       .  S
C2483      C2484   1.402       .  A
C2483      H2496   1.083       .  S
C2484      C2485   1.399       .  A
C2484      C2487   1.443       .  S
C2485      C2486   1.397       .  A
C2485      H2497   1.084       .  S
C2486      H2498   1.083       .  S
C2487      C2488   1.208       .  T
C2488      C2489   1.443       .  S
C2489      C2490   1.399       .  A
C2489      C2494   1.402       .  A
C2490      C2491   1.397       .  A
C2490      H2499   1.083       .  S
C2491      C2492   1.406       .  A
C2491      H2500   1.083       .  S
C2492      C2493   1.406       .  A
C2493      C2494   1.403       .  A
C2493      H2501   1.082       .  S
C2494      H2502   1.084       .  S
C2503      C2504   1.407       .  A
C2503      C2508   1.406       .  A
C2504      C2505   1.404       .  A
C2504      H2517   1.083       .  S
C2505      C2506   1.402       .  A
C2505      H2518   1.083       .  S
C2506      C2507   1.399       .  A
C2506      C2509   1.443       .  S
C2507      C2508   1.396       .  A
C2507      H2519   1.084       .  S
C2508      H2520   1.083       .  S
C2509      C2510   1.208       .  T
C2510      C2511   1.444       .  S
C2511      C2512   1.400       .  A
C2511      C2516   1.401       .  A
C2512      C2513   1.398       .  A
C2512      H2521   1.084       .  S
C2513      C2514   1.406       .  A
C2513      H2522   1.083       .  S
C2514      C2515   1.407       .  A
C2515      C2516   1.402       .  A
C2515      H2523   1.083       .  S
C2516      H2524   1.084       .  S
C2525      C2526   1.406       .  A
C2525      C2530   1.406       .  A
C2526      C2527   1.402       .  A
C2526      H2539   1.083       .  S
C2527      C2528   1.401       .  A
C2527      H2540   1.084       .  S
C2528      C2529   1.399       .  A
C2528      C2531   1.442       .  S
C2529      C2530   1.397       .  A
C2529      H2541   1.084       .  S
C2530      H2542   1.083       .  S
C2531      C2532   1.207       .  T
C2532      C2533   1.441       .  S
C2533      C2534   1.402       .  A
C2533      C2538   1.398       .  A
C2534      C2535   1.403       .  A
C2534      H2543   1.084       .  S
C2535      C2536   1.406       .  A
C2535      H2544   1.083       .  S
C2536      C2537   1.406       .  A
C2537      C2538   1.396       .  A
C2537      H2545   1.083       .  S
C2538      H2546   1.083       .  S
C2547      C2548   1.406       .  A
C2547      C2552   1.407       .  A
C2548      C2549   1.402       .  A
C2548      H2561   1.083       .  S
C2549      C2550   1.402       .  A
C2549      H2562   1.084       .  S
C2550      C2551   1.400       .  A
C2550      C2553   1.444       .  S
C2551      C2552   1.398       .  A
C2551      H2563   1.084       .  S
C2552      H2564   1.083       .  S
C2553      C2554   1.209       .  T
C2554      C2555   1.444       .  S
C2555      C2556   1.400       .  A
C2555      C2560   1.402       .  A
C2556      C2557   1.399       .  A
C2556      H2565   1.084       .  S
C2557      C2558   1.407       .  A
C2557      H2566   1.083       .  S
C2558      C2559   1.407       .  A
C2559      C2560   1.402       .  A
C2559      H2567   1.083       .  S
C2560      H2568   1.083       .  S
C2569      C2570   1.406       .  A
C2569      C2574   1.406       .  A
C2570      C2571   1.394       .  A
C2570      H2583   1.083       .  S
C2571      C2572   1.397       .  A
C2571      H2584   1.084       .  S
C2572      C2573   1.403       .  A
C2572      C2575   1.440       .  S
C2573      C2574   1.403       .  A
C2573      H2585   1.083       .  S
C2574      H2586   1.083       .  S
C2575      C2576   1.206       .  T
C2576      C2577   1.441       .  S
C2577      C2578   1.401       .  A
C2577      C2582   1.399       .  A
C2578      C2579   1.401       .  A
C2578      H2587   1.083       .  S
C2579      C2580   1.406       .  A
C2579      H2588   1.083       .  S
C2580      C2581   1.406       .  A
C2581      C2582   1.397       .  A
C2581      H2589   1.083       .  S
C2582      H2590   1.084       .  S
C2591      C2592   1.407       .  A
C2591      C2596   1.407       .  A
C2592      C2593   1.398       .  A
C2592      H2605   1.083       .  S
C2593      C2594   1.400       .  A
C2593      H2606   1.084       .  S
C2594      C2595   1.403       .  A
C2594      C2597   1.446       .  S
C2595      C2596   1.404       .  A
C2595      H2607   1.083       .  S
C2596      H2608   1.083       .  S
C2597      C2598   1.210       .  T
C2598      C2599   1.446       .  S
C2599      C2600   1.404       .  A
C2599      C2604   1.399       .  A
C2600      C2601   1.405       .  A
C2600      H2609   1.083       .  S
C2601      C2602   1.408       .  A
C2601      H2610   1.082       .  S
C2602      C2603   1.406       .  A
C2603      C2604   1.396       .  A
C2603      H2611   1.083       .  S
C2604      H2612   1.084       .  S
C2613      C2614   1.407       .  A
C2613      C2618   1.407       .  A
C2614      C2615   1.404       .  A
C2614      H2627   1.083       .  S
C2615      C2616   1.402       .  A
C2615      H2628   1.084       .  S
C2616      C2617   1.399       .  A
C2616      C2619   1.444       .  S
C2617      C2618   1.397       .  A
C2617      H2629   1.083       .  S
C2618      H2630   1.083       .  S
C2619      C2620   1.209       .  T
C2620      C2621   1.444       .  S
C2621      C2622   1.399       .  A
C2621      C2626   1.402       .  A
C2622      C2623   1.397       .  A
C2622      H2631   1.084       .  S
C2623      C2624   1.407       .  A
C2623      H2632   1.083       .  S
C2624      C2625   1.406       .  A
C2625      C2626   1.403       .  A
C2625      H2633   1.083       .  S
C2626      H2634   1.083       .  S
C2635      C2636   1.405       .  A
C2635      C2640   1.407       .  A
C2636      C2637   1.401       .  A
C2636      H2649   1.083       .  S
C2637      C2638   1.401       .  A
C2637      H2650   1.083       .  S
C2638      C2639   1.400       .  A
C2638      C2641   1.442       .  S
C2639      C2640   1.397       .  A
C2639      H2651   1.084       .  S
C2640      H2652   1.083       .  S
C2641      C2642   1.208       .  T
C2642      C2643   1.443       .  S
C2643      C2644   1.403       .  A
C2643      C2648   1.398       .  A
C2644      C2645   1.404       .  A
C2644      H2653   1.083       .  S
C2645      C2646   1.406       .  A
C2645      H2654   1.083       .  S
C2646      C2647   1.406       .  A
C2647      C2648   1.396       .  A
C2647      H2655   1.083       .  S
C2648      H2656   1.084       .  S
C2657      C2658   1.406       .  A
C2657      C2662   1.406       .  A
C2658      C2659   1.396       .  A
C2658      H2671   1.083       .  S
C2659      C2660   1.399       .  A
C2659      H2672   1.084       .  S
C2660      C2661   1.402       .  A
C2660      C2663   1.442       .  S
C2661      C2662   1.403       .  A
C2661      H2673   1.083       .  S
C2662      H2674   1.083       .  S
C2663      C2664   1.208       .  T
C2664      C2665   1.443       .  S
C2665      C2666   1.402       .  A
C2665      C2670   1.399       .  A
C2666      C2667   1.403       .  A
C2666      H2675   1.084       .  S
C2667      C2668   1.406       .  A
C2667      H2676   1.083       .  S
C2668      C2669   1.406       .  A
C2669      C2670   1.397       .  A
C2669      H2677   1.083       .  S
C2670      H2678   1.084       .  S
C2679      C2680   1.406       .  A
C2679      C2684   1.407       .  A
C2680      C2681   1.402       .  A
C2680      H2693   1.083       .  S
C2681      C2682   1.401       .  A
C2681      H2694   1.084       .  S
C2682      C2683   1.399       .  A
C2682      C2685   1.441       .  S
C2683      C2684   1.396       .  A
C2683      H2695   1.083       .  S
C2684      H2696   1.083       .  S
C2685      C2686   1.206       .  T
C2686      C2687   1.440       .  S
C2687      C2688   1.401       .  A
C2687      C2692   1.399       .  A
C2688      C2689   1.401       .  A
C2688      H2697   1.084       .  S
C2689      C2690   1.406       .  A
C2689      H2698   1.083       .  S
C2690      C2691   1.406       .  A
C2691      C2692   1.396       .  A
C2691      H2699   1.083       .  S
C2692      H2700   1.084       .  S
C2701      C2702   1.407       .  A
C2701      C2706   1.407       .  A
C2702      C2703   1.404       .  A
C2702      H2715   1.083       .  S
C2703      C2704   1.402       .  A
C2703      H2716   1.083       .  S
C2704      C2705   1.400       .  A
C2704      C2707   1.446       .  S
C2705      C2706   1.398       .  A
C2705      H2717   1.084       .  S
C2706      H2718   1.083       .  S
C2707      C2708   1.209       .  T
C2708      C2709   1.445       .  S
C2709      C2710   1.400       .  A
C2709      C2714   1.402       .  A
C2710      C2711   1.398       .  A
C2710      H2719   1.084       .  S
C2711      C2712   1.406       .  A
C2711      H2720   1.083       .  S
C2712      C2713   1.407       .  A
C2713      C2714   1.403       .  A
C2713      H2721   1.083       .  S
C2714      H2722   1.083       .  S
C2723      C2724   1.407       .  A
C2723      C2728   1.406       .  A
C2724      C2725   1.404       .  A
C2724      H2737   1.083   1_554  S
C2725      C2726   1.402       .  A
C2725      H2738   1.083       .  S
C2726      C2727   1.400       .  A
C2726      C2729   1.446       .  S
C2727      C2728   1.398       .  A
C2727      H2739   1.084       .  S
C2728      H2740   1.083       .  S
C2729      C2730   1.210       .  T
C2730      C2731   1.446       .  S
C2731      C2732   1.400       .  A
C2731      C2736   1.403       .  A
C2732      C2733   1.398       .  A
C2732      H2741   1.084       .  S
C2733      C2734   1.407       .  A
C2733      H2742   1.083       .  S
C2734      C2735   1.407       .  A
C2735      C2736   1.404       .  A
C2735      H2743   1.083       .  S
C2736      H2744   1.083       .  S
C2745      C2746   1.405       .  A
C2745      C2750   1.406       .  A
C2746      C2747   1.395       .  A
C2746      H2759   1.083       .  S
C2747      C2748   1.398       .  A
C2747      H2760   1.084       .  S
C2748      C2749   1.401       .  A
C2748      C2751   1.437       .  S
C2749      C2750   1.400       .  A
C2749      H2761   1.083       .  S
C2750      H2762   1.083       .  S
C2751      C2752   1.205       .  T
C2752      C2753   1.437       .  S
C2753      C2754   1.399       .  A
C2753      C2758   1.400       .  A
C2754      C2755   1.395       .  A
C2754      H2763   1.084       .  S
C2755      C2756   1.406       .  A
C2755      H2764   1.083       .  S
C2756      C2757   1.406       .  A
C2757      C2758   1.400       .  A
C2757      H2765   1.083       .  S
C2758      H2766   1.084       .  S
C2767      C2768   1.406       .  A
C2767      C2772   1.406       .  A
C2768      C2769   1.396       .  A
C2768      H2781   1.083       .  S
C2769      C2770   1.399       .  A
C2769      H2782   1.084       .  S
C2770      C2771   1.402       .  A
C2770      C2773   1.441       .  S
C2771      C2772   1.403       .  A
C2771      H2783   1.084       .  S
C2772      H2784   1.083       .  S
C2773      C2774   1.207       .  T
C2774      C2775   1.441       .  S
C2775      C2776   1.399       .  A
C2775      C2780   1.402       .  A
C2776      C2777   1.395       .  A
C2776      H2785   1.084       .  S
C2777      C2778   1.405       .  A
C2777      H2786   1.083       .  S
C2778      C2779   1.406       .  A
C2779      C2780   1.402       .  A
C2779      H2787   1.083       .  S
C2780      H2788   1.084       .  S
C2789      C2790   1.406       .  A
C2789      C2794   1.406       .  A
C2790      C2791   1.397       .  A
C2790      H2803   1.083       .  S
C2791      C2792   1.399       .  A
C2791      H2804   1.084       .  S
C2792      C2793   1.402       .  A
C2792      C2795   1.442       .  S
C2793      C2794   1.402       .  A
C2793      H2805   1.083       .  S
C2794      H2806   1.083       .  S
C2795      C2796   1.208       .  T
C2796      C2797   1.442       .  S
C2797      C2798   1.402       .  A
C2797      C2802   1.399       .  A
C2798      C2799   1.402       .  A
C2798      H2807   1.084       .  S
C2799      C2800   1.406       .  A
C2799      H2808   1.083       .  S
C2800      C2801   1.406       .  A
C2801      C2802   1.397       .  A
C2801      H2809   1.083       .  S
C2802      H2810   1.084       .  S
C2811      C2812   1.406       .  A
C2811      C2816   1.406       .  A
C2812      C2813   1.401       .  A
C2812      H2825   1.083       .  S
C2813      C2814   1.401       .  A
C2813      H2826   1.083       .  S
C2814      C2815   1.399       .  A
C2814      C2817   1.440       .  S
C2815      C2816   1.396       .  A
C2815      H2827   1.084       .  S
C2816      H2828   1.083       .  S
C2817      C2818   1.206       .  T
C2818      C2819   1.440       .  S
C2819      C2820   1.402       .  A
C2819      C2824   1.398       .  A
C2820      C2821   1.403       .  A
C2820      H2829   1.084       .  S
C2821      C2822   1.407       .  A
C2821      H2830   1.083       .  S
C2822      C2823   1.405       .  A
C2823      C2824   1.394       .  A
C2823      H2831   1.083       .  S
C2824      H2832   1.084       .  S
C2833      C2834   1.407       .  A
C2833      C2838   1.407       .  A
C2834      C2835   1.405       .  A
C2834      H2847   1.082       .  S
C2835      C2836   1.403       .  A
C2835      H2848   1.083       .  S
C2836      C2837   1.399       .  A
C2836      C2839   1.447       .  S
C2837      C2838   1.398       .  A
C2837      H2849   1.083       .  S
C2838      H2850   1.083       .  S
C2839      C2840   1.210       .  T
C2840      C2841   1.447       .  S
C2841      C2842   1.399       .  A
C2841      C2846   1.403       .  A
C2842      C2843   1.398       .  A
C2842      H2851   1.084       .  S
C2843      C2844   1.407       .  A
C2843      H2852   1.083       .  S
C2844      C2845   1.407       .  A
C2845      C2846   1.404       .  A
C2845      H2853   1.083       .  S
C2846      H2854   1.083       .  S
C2855      C2856   1.406       .  A
C2855      C2860   1.406       .  A
C2856      C2857   1.396       .  A
C2856      H2869   1.083       .  S
C2857      C2858   1.399       .  A
C2857      H2870   1.084       .  S
C2858      C2859   1.401       .  A
C2858      C2861   1.440       .  S
C2859      C2860   1.402       .  A
C2859      H2871   1.084       .  S
C2860      H2872   1.083       .  S
C2861      C2862   1.206       .  T
C2862      C2863   1.440       .  S
C2863      C2864   1.402       .  A
C2863      C2868   1.398       .  A
C2864      C2865   1.403       .  A
C2864      H2873   1.083       .  S
C2865      C2866   1.407       .  A
C2865      H2874   1.083       .  S
C2866      C2867   1.406       .  A
C2867      C2868   1.394       .  A
C2867      H2875   1.083       .  S
C2868      H2876   1.084       .  S
C2877      C2878   1.407       .  A
C2877      C2882   1.407       .  A
C2878      C2879   1.400       .  A
C2878      H2891   1.083       .  S
C2879      C2880   1.401       .  A
C2879      H2892   1.084       .  S
C2880      C2881   1.403       .  A
C2880      C2883   1.449       .  S
C2881      C2882   1.404       .  A
C2881      H2893   1.083       .  S
C2882      H2894   1.083   1_554  S
C2883      C2884   1.211       .  T
C2884      C2885   1.449       .  S
C2885      C2886   1.403       .  A
C2885      C2890   1.400       .  A
C2886      C2887   1.405       .  A
C2886      H2895   1.083       .  S
C2887      C2888   1.407       .  A
C2887      H2896   1.083       .  S
C2888      C2889   1.407       .  A
C2889      C2890   1.399       .  A
C2889      H2897   1.083       .  S
C2890      H2898   1.084       .  S
C2899      C2900   1.407       .  A
C2899      C2904   1.408       .  A
C2900      C2901   1.400       .  A
C2900      H2913   1.083       .  S
C2901      C2902   1.401       .  A
C2901      H2914   1.084       .  S
C2902      C2903   1.403       .  A
C2902      C2905   1.449       .  S
C2903      C2904   1.405       .  A
C2903      H2915   1.083       .  S
C2904      H2916   1.083       .  S
C2905      C2906   1.211       .  T
C2906      C2907   1.448       .  S
C2907      C2908   1.404       .  A
C2907      C2912   1.400       .  A
C2908      C2909   1.406       .  A
C2908      H2917   1.083       .  S
C2909      C2910   1.408       .  A
C2909      H2918   1.082       .  S
C2910      C2911   1.406       .  A
C2911      C2912   1.398       .  A
C2911      H2919   1.083       .  S
C2912      H2920   1.084       .  S
C2921      C2922   1.406       .  A
C2921      C2926   1.407       .  A
C2922      C2923   1.402       .  A
C2922      H2935   1.083       .  S
C2923      C2924   1.402       .  A
C2923      H2936   1.083       .  S
C2924      C2925   1.398       .  A
C2924      C2927   1.442       .  S
C2925      C2926   1.396       .  A
C2925      H2937   1.084       .  S
C2926      H2938   1.083       .  S
C2927      C2928   1.207       .  T
C2928      C2929   1.441       .  S
C2929      C2930   1.399       .  A
C2929      C2934   1.401       .  A
C2930      C2931   1.397       .  A
C2930      H2939   1.084       .  S
C2931      C2932   1.407       .  A
C2931      H2940   1.083       .  S
C2932      C2933   1.406       .  A
C2933      C2934   1.401       .  A
C2933      H2941   1.083       .  S
C2934      H2942   1.084       .  S
C2943      C2944   1.406       .  A
C2943      C2948   1.406       .  A
C2944      C2945   1.397       .  A
C2944      H2957   1.083       .  S
C2945      C2946   1.399       .  A
C2945      H2958   1.084       .  S
C2946      C2947   1.401       .  A
C2946      C2949   1.441       .  S
C2947      C2948   1.401       .  A
C2947      H2959   1.083       .  S
C2948      H2960   1.083       .  S
C2949      C2950   1.207       .  T
C2950      C2951   1.441       .  S
C2951      C2952   1.400       .  A
C2951      C2956   1.400       .  A
C2952      C2953   1.398       .  A
C2952      H2961   1.083       .  S
C2953      C2954   1.406       .  A
C2953      H2962   1.083       .  S
C2954      C2955   1.406       .  A
C2955      C2956   1.400       .  A
C2955      H2963   1.083       .  S
C2956      H2964   1.084       .  S
C2965      C2966   1.407       .  A
C2965      C2970   1.407       .  A
C2966      C2967   1.398       .  A
C2966      H2979   1.083       .  S
C2967      C2968   1.400       .  A
C2967      H2980   1.083       .  S
C2968      C2969   1.402       .  A
C2968      C2971   1.445       .  S
C2969      C2970   1.404       .  A
C2969      H2981   1.083       .  S
C2970      H2982   1.083       .  S
C2971      C2972   1.209       .  T
C2972      C2973   1.444       .  S
C2973      C2974   1.403       .  A
C2973      C2978   1.398       .  A
C2974      C2975   1.404       .  A
C2974      H2983   1.083       .  S
C2975      C2976   1.407       .  A
C2975      H2984   1.082       .  S
C2976      C2977   1.405       .  A
C2977      C2978   1.395       .  A
C2977      H2985   1.083       .  S
C2978      H2986   1.084       .  S
C2987      C2988   1.406       .  A
C2987      C2992   1.406       .  A
C2988      C2989   1.397       .  A
C2988      H3001   1.083       .  S
C2989      C2990   1.400       .  A
C2989      H3002   1.084       .  S
C2990      C2991   1.401       .  A
C2990      C2993   1.442       .  S
C2991      C2992   1.401       .  A
C2991      H3003   1.083       .  S
C2992      H3004   1.083       .  S
C2993      C2994   1.207       .  T
C2994      C2995   1.442       .  S
C2995      C2996   1.399       .  A
C2995      C3000   1.402       .  A
C2996      C2997   1.397       .  A
C2996      H3005   1.084       .  S
C2997      C2998   1.406       .  A
C2997      H3006   1.083       .  S
C2998      C2999   1.406       .  A
C2999      C3000   1.402       .  A
C2999      H3007   1.083       .  S
C3000      H3008   1.083       .  S
C3009      C3010   1.406       .  A
C3009      C3014   1.406       .  A
C3010      C3011   1.394       .  A
C3010      H3023   1.083       .  S
C3011      C3012   1.398       .  A
C3011      H3024   1.084       .  S
C3012      C3013   1.401       .  A
C3012      C3015   1.438       .  S
C3013      C3014   1.402       .  A
C3013      H3025   1.084       .  S
C3014      H3026   1.083       .  S
C3015      C3016   1.205       .  T
C3016      C3017   1.438       .  S
C3017      C3018   1.400       .  A
C3017      C3022   1.399       .  A
C3018      C3019   1.399       .  A
C3018      H3027   1.084       .  S
C3019      C3020   1.405       .  A
C3019      H3028   1.083       .  S
C3020      C3021   1.406       .  A
C3021      C3022   1.396       .  A
C3021      H3029   1.083       .  S
C3022      H3030   1.084       .  S
C3031      C3032   1.406       .  A
C3031      C3036   1.407       .  A
C3032      C3033   1.402       .  A
C3032      H3045   1.083       .  S
C3033      C3034   1.402       .  A
C3033      H3046   1.083       .  S
C3034      C3035   1.398       .  A
C3034      C3037   1.440       .  S
C3035      C3036   1.395       .  A
C3035      H3047   1.083       .  S
C3036      H3048   1.083       .  S
C3037      C3038   1.206       .  T
C3038      C3039   1.439       .  S
C3039      C3040   1.398       .  A
C3039      C3044   1.401       .  A
C3040      C3041   1.395       .  A
C3040      H3049   1.084       .  S
C3041      C3042   1.406       .  A
C3041      H3050   1.083       .  S
C3042      C3043   1.406       .  A
C3043      C3044   1.401       .  A
C3043      H3051   1.083       .  S
C3044      H3052   1.084       .  S
C3053      C3054   1.406       .  A
C3053      C3058   1.406       .  A
C3054      C3055   1.399       .  A
C3054      H3067   1.083       .  S
C3055      C3056   1.400       .  A
C3055      H3068   1.084       .  S
C3056      C3057   1.400       .  A
C3056      C3059   1.440       .  S
C3057      C3058   1.397       .  A
C3057      H3069   1.084       .  S
C3058      H3070   1.083       .  S
C3059      C3060   1.206       .  T
C3060      C3061   1.440       .  S
C3061      C3062   1.399       .  A
C3061      C3066   1.401       .  A
C3062      C3063   1.396       .  A
C3062      H3071   1.084       .  S
C3063      C3064   1.406       .  A
C3063      H3072   1.083       .  S
C3064      C3065   1.406       .  A
C3065      C3066   1.402       .  A
C3065      H3073   1.083       .  S
C3066      H3074   1.083       .  S
C3075      C3076   1.406       .  A
C3075      C3080   1.406       .  A
C3076      C3077   1.396       .  A
C3076      H3089   1.083       .  S
C3077      C3078   1.399       .  A
C3077      H3090   1.084       .  S
C3078      C3079   1.400       .  A
C3078      C3081   1.439       .  S
C3079      C3080   1.400       .  A
C3079      H3091   1.084       .  S
C3080      H3092   1.083       .  S
C3081      C3082   1.205       .  T
C3082      C3083   1.438       .  S
C3083      C3084   1.401       .  A
C3083      C3088   1.398       .  A
C3084      C3085   1.401       .  A
C3084      H3093   1.084       .  S
C3085      C3086   1.405       .  A
C3085      H3094   1.083       .  S
C3086      C3087   1.406       .  A
C3087      C3088   1.394       .  A
C3087      H3095   1.083       .  S
C3088      H3096   1.084       .  S
C3097      C3098   1.407       .  A
C3097      C3102   1.406       .  A
C3098      C3099   1.404       .  A
C3098      H3111   1.083       .  S
C3099      C3100   1.402       .  A
C3099      H3112   1.083       .  S
C3100      C3101   1.398       .  A
C3100      C3103   1.442       .  S
C3101      C3102   1.395       .  A
C3101      H3113   1.084       .  S
C3102      H3114   1.083       .  S
C3103      C3104   1.207       .  T
C3104      C3105   1.442       .  S
C3105      C3106   1.400       .  A
C3105      C3110   1.401       .  A
C3106      C3107   1.397       .  A
C3106      H3115   1.084       .  S
C3107      C3108   1.407       .  A
C3107      H3116   1.083       .  S
C3108      C3109   1.405       .  A
C3109      C3110   1.401       .  A
C3109      H3117   1.083       .  S
C3110      H3118   1.084       .  S
C3119      C3120   1.406       .  A
C3119      C3124   1.406       .  A
C3120      C3121   1.401       .  A
C3120      H3133   1.083       .  S
C3121      C3122   1.400       .  A
C3121      H3134   1.084       .  S
C3122      C3123   1.399       .  A
C3122      C3125   1.440       .  S
C3123      C3124   1.397       .  A
C3123      H3135   1.083       .  S
C3124      H3136   1.083       .  S
C3125      C3126   1.206       .  T
C3126      C3127   1.439       .  S
C3127      C3128   1.398       .  A
C3127      C3132   1.402       .  A
C3128      C3129   1.393       .  A
C3128      H3137   1.084       .  S
C3129      C3130   1.405       .  A
C3129      H3138   1.083       .  S
C3130      C3131   1.406       .  A
C3131      C3132   1.402       .  A
C3131      H3139   1.083       .  S
C3132      H3140   1.083       .  S
C3141      C3142   1.406       .  A
C3141      C3146   1.407       .  A
C3142      C3143   1.396       .  A
C3142      H3155   1.083       .  S
C3143      C3144   1.399       .  A
C3143      H3156   1.084       .  S
C3144      C3145   1.401       .  A
C3144      C3147   1.441       .  S
C3145      C3146   1.402       .  A
C3145      H3157   1.083       .  S
C3146      H3158   1.083       .  S
C3147      C3148   1.206       .  T
C3148      C3149   1.440       .  S
C3149      C3150   1.399       .  A
C3149      C3154   1.402       .  A
C3150      C3151   1.395       .  A
C3150      H3159   1.084       .  S
C3151      C3152   1.406       .  A
C3151      H3160   1.083       .  S
C3152      C3153   1.406       .  A
C3153      C3154   1.402       .  A
C3153      H3161   1.083       .  S
C3154      H3162   1.083       .  S
C3163      C3164   1.407       .  A
C3163      C3168   1.407       .  A
C3164      C3165   1.400       .  A
C3164      H3177   1.083       .  S
C3165      C3166   1.401       .  A
C3165      H3178   1.083       .  S
C3166      C3167   1.401       .  A
C3166      C3169   1.444       .  S
C3167      C3168   1.401       .  A
C3167      H3179   1.084       .  S
C3168      H3180   1.083       .  S
C3169      C3170   1.209       .  T
C3170      C3171   1.444       .  S
C3171      C3172   1.403       .  A
C3171      C3176   1.399       .  A
C3172      C3173   1.404       .  A
C3172      H3181   1.083       .  S
C3173      C3174   1.407       .  A
C3173      H3182   1.083       .  S
C3174      C3175   1.407       .  A
C3175      C3176   1.397       .  A
C3175      H3183   1.083       .  S
C3176      H3184   1.084       .  S
C3185      C3186   1.406       .  A
C3185      C3190   1.406       .  A
C3186      C3187   1.403       .  A
C3186      H3199   1.083       .  S
C3187      C3188   1.402       .  A
C3187      H3200   1.083       .  S
C3188      C3189   1.399       .  A
C3188      C3191   1.442       .  S
C3189      C3190   1.396       .  A
C3189      H3201   1.084       .  S
C3190      H3202   1.083       .  S
C3191      C3192   1.208       .  T
C3192      C3193   1.442       .  S
C3193      C3194   1.399       .  A
C3193      C3198   1.402       .  A
C3194      C3195   1.397       .  A
C3194      H3203   1.083       .  S
C3195      C3196   1.406       .  A
C3195      H3204   1.083       .  S
C3196      C3197   1.406       .  A
C3197      C3198   1.403       .  A
C3197      H3205   1.083       .  S
C3198      H3206   1.084       .  S
C3207      C3208   1.406       .  A
C3207      C3212   1.407       .  A
C3208      C3209   1.402       .  A
C3208      H3221   1.083       .  S
C3209      C3210   1.401       .  A
C3209      H3222   1.084       .  S
C3210      C3211   1.398       .  A
C3210      C3213   1.440       .  S
C3211      C3212   1.396       .  A
C3211      H3223   1.083       .  S
C3212      H3224   1.083       .  S
C3213      C3214   1.206       .  T
C3214      C3215   1.439       .  S
C3215      C3216   1.401       .  A
C3215      C3220   1.399       .  A
C3216      C3217   1.401       .  A
C3216      H3225   1.083       .  S
C3217      C3218   1.406       .  A
C3217      H3226   1.084       .  S
C3218      C3219   1.406       .  A
C3219      C3220   1.396       .  A
C3219      H3227   1.083       .  S
C3220      H3228   1.084       .  S
C3229      C3230   1.406       .  A
C3229      C3234   1.407       .  A
C3230      C3231   1.404       .  A
C3230      H3243   1.083       .  S
C3231      C3232   1.403       .  A
C3231      H3244   1.083       .  S
C3232      C3233   1.399       .  A
C3232      C3235   1.446       .  S
C3233      C3234   1.397       .  A
C3233      H3245   1.084       .  S
C3234      H3246   1.083       .  S
C3235      C3236   1.210       .  T
C3236      C3237   1.446       .  S
C3237      C3238   1.399       .  A
C3237      C3242   1.403       .  A
C3238      C3239   1.396       .  A
C3238      H3247   1.084       .  S
C3239      C3240   1.406       .  A
C3239      H3248   1.083       .  S
C3240      C3241   1.407       .  A
C3241      C3242   1.405       .  A
C3241      H3249   1.082       .  S
C3242      H3250   1.083       .  S
C3251      C3252   1.406       .  A
C3251      C3256   1.406       .  A
C3252      C3253   1.401       .  A
C3252      H3265   1.083       .  S
C3253      C3254   1.401       .  A
C3253      H3266   1.083       .  S
C3254      C3255   1.400       .  A
C3254      C3257   1.441       .  S
C3255      C3256   1.397       .  A
C3255      H3267   1.084       .  S
C3256      H3268   1.083       .  S
C3257      C3258   1.207       .  T
C3258      C3259   1.441       .  S
C3259      C3260   1.398       .  A
C3259      C3264   1.402       .  A
C3260      C3261   1.395       .  A
C3260      H3269   1.084       .  S
C3261      C3262   1.406       .  A
C3261      H3270   1.083       .  S
C3262      C3263   1.406       .  A
C3263      C3264   1.403       .  A
C3263      H3271   1.082       .  S
C3264      H3272   1.084       .  S
C3273      C3274   1.406       .  A
C3273      C3278   1.407       .  A
C3274      C3275   1.397       .  A
C3274      H3287   1.083       .  S
C3275      C3276   1.399       .  A
C3275      H3288   1.084       .  S
C3276      C3277   1.402       .  A
C3276      C3279   1.442       .  S
C3277      C3278   1.403       .  A
C3277      H3289   1.084       .  S
C3278      H3290   1.083       .  S
C3279      C3280   1.207       .  T
C3280      C3281   1.442       .  S
C3281      C3282   1.401       .  A
C3281      C3286   1.400       .  A
C3282      C3283   1.401       .  A
C3282      H3291   1.083       .  S
C3283      C3284   1.407       .  A
C3283      H3292   1.083       .  S
C3284      C3285   1.406       .  A
C3285      C3286   1.397       .  A
C3285      H3293   1.083       .  S
C3286      H3294   1.084       .  S
C3295      C3296   1.408       .  A
C3295      C3300   1.405       .  A
C3296      C3297   1.399       .  A
C3296      H3309   1.082       .  S
C3297      C3298   1.400       .  A
C3297      H3310   1.083       .  S
C3298      C3299   1.402       .  A
C3298      C3301   1.445       .  S
C3299      C3300   1.402       .  A
C3299      H3311   1.084       .  S
C3300      H3312   1.083       .  S
C3301      C3302   1.209       .  T
C3302      C3303   1.445       .  S
C3303      C3304   1.404       .  A
C3303      C3308   1.397       .  A
C3304      C3305   1.406       .  A
C3304      H3313   1.083       .  S
C3305      C3306   1.407       .  A
C3305      H3314   1.082       .  S
C3306      C3307   1.406       .  A
C3307      C3308   1.395       .  A
C3307      H3315   1.083       .  S
C3308      H3316   1.084       .  S
C3317      C3318   1.406       .  A
C3317      C3322   1.406       .  A
C3318      C3319   1.399       .  A
C3318      H3331   1.083       .  S
C3319      C3320   1.400       .  A
C3319      H3332   1.084       .  S
C3320      C3321   1.402       .  A
C3320      C3323   1.446       .  S
C3321      C3322   1.403       .  A
C3321      H3333   1.084       .  S
C3322      H3334   1.083       .  S
C3323      C3324   1.210       .  T
C3324      C3325   1.446       .  S
C3325      C3326   1.399       .  A
C3325      C3330   1.403       .  A
C3326      C3327   1.398       .  A
C3326      H3335   1.084       .  S
C3327      C3328   1.407       .  A
C3327      H3336   1.083       .  S
C3328      C3329   1.406       .  A
C3329      C3330   1.404       .  A
C3329      H3337   1.083       .  S
C3330      H3338   1.083       .  S
C3339      C3340   1.407       .  A
C3339      C3344   1.406       .  A
C3340      C3341   1.402       .  A
C3340      H3353   1.083       .  S
C3341      C3342   1.401       .  A
C3341      H3354   1.084       .  S
C3342      C3343   1.401       .  A
C3342      C3345   1.445       .  S
C3343      C3344   1.399       .  A
C3343      H3355   1.084       .  S
C3344      H3356   1.083       .  S
C3345      C3346   1.209       .  T
C3346      C3347   1.445       .  S
C3347      C3348   1.399       .  A
C3347      C3352   1.403       .  A
C3348      C3349   1.397       .  A
C3348      H3357   1.084       .  S
C3349      C3350   1.406       .  A
C3349      H3358   1.083       .  S
C3350      C3351   1.407       .  A
C3351      C3352   1.404       .  A
C3351      H3359   1.083       .  S
C3352      H3360   1.083       .  S
C3361      C3362   1.406       .  A
C3361      C3366   1.407       .  A
C3362      C3363   1.396       .  A
C3362      H3375   1.083       .  S
C3363      C3364   1.398       .  A
C3363      H3376   1.084       .  S
C3364      C3365   1.403       .  A
C3364      C3367   1.444       .  S
C3365      C3366   1.405       .  A
C3365      H3377   1.083       .  S
C3366      H3378   1.083       .  S
C3367      C3368   1.209       .  T
C3368      C3369   1.444       .  S
C3369      C3370   1.402       .  A
C3369      C3374   1.399       .  A
C3370      C3371   1.404       .  A
C3370      H3379   1.083       .  S
C3371      C3372   1.407       .  A
C3371      H3380   1.083       .  S
C3372      C3373   1.406       .  A
C3373      C3374   1.396       .  A
C3373      H3381   1.083       .  S
C3374      H3382   1.084       .  S
C3383      C3384   1.407       .  A
C3383      C3388   1.406       .  A
C3384      C3385   1.403       .  A
C3384      H3397   1.083       .  S
C3385      C3386   1.402       .  A
C3385      H3398   1.083       .  S
C3386      C3387   1.399       .  A
C3386      C3389   1.442       .  S
C3387      C3388   1.396       .  A
C3387      H3399   1.084       .  S
C3388      H3400   1.083       .  S
C3389      C3390   1.207       .  T
C3390      C3391   1.442       .  S
C3391      C3392   1.399       .  A
C3391      C3396   1.402       .  A
C3392      C3393   1.395       .  A
C3392      H3401   1.083       .  S
C3393      C3394   1.405       .  A
C3393      H3402   1.083       .  S
C3394      C3395   1.407       .  A
C3395      C3396   1.403       .  A
C3395      H3403   1.082       .  S
C3396      H3404   1.084       .  S
C3405      C3406   1.405       .  A
C3405      C3410   1.407       .  A
C3406      C3407   1.400       .  A
C3406      H3419   1.085   1_565  S
C3407      C3408   1.401       .  A
C3407      H3420   1.082       .  S
C3408      C3409   1.400       .  A
C3408      C3411   1.442       .  S
C3409      C3410   1.399       .  A
C3409      H3421   1.085       .  S
C3410      H3422   1.082       .  S
C3411      C3412   1.207       .  T
C3412      C3413   1.442       .  S
C3413      C3414   1.402       .  A
C3413      C3418   1.398       .  A
C3414      C3415   1.403       .  A
C3414      H3423   1.084       .  S
C3415      C3416   1.407       .  A
C3415      H3424   1.082       .  S
C3416      C3417   1.406       .  A
C3417      C3418   1.395       .  A
C3417      H3425   1.083       .  S
C3418      H3426   1.084       .  S
C3427      C3428   1.406       .  A
C3427      C3432   1.407       .  A
C3428      C3429   1.401       .  A
C3428      H3441   1.083       .  S
C3429      C3430   1.401       .  A
C3429      H3442   1.083       .  S
C3430      C3431   1.400       .  A
C3430      C3433   1.442       .  S
C3431      C3432   1.399       .  A
C3431      H3443   1.084       .  S
C3432      H3444   1.083       .  S
C3433      C3434   1.207       .  T
C3434      C3435   1.442       .  S
C3435      C3436   1.399       .  A
C3435      C3440   1.402       .  A
C3436      C3437   1.396       .  A
C3436      H3445   1.084       .  S
C3437      C3438   1.406       .  A
C3437      H3446   1.083       .  S
C3438      C3439   1.406       .  A
C3439      C3440   1.402       .  A
C3439      H3447   1.083       .  S
C3440      H3448   1.084       .  S
C3449      C3450   1.406       .  A
C3449      C3454   1.406       .  A
C3450      C3451   1.400       .  A
C3450      H3463   1.083       .  S
C3451      C3452   1.401       .  A
C3451      H3464   1.084       .  S
C3452      C3453   1.399       .  A
C3452      C3455   1.440       .  S
C3453      C3454   1.397       .  A
C3453      H3465   1.083       .  S
C3454      H3466   1.083       .  S
C3455      C3456   1.206       .  T
C3456      C3457   1.440       .  S
C3457      C3458   1.401       .  A
C3457      C3462   1.399       .  A
C3458      C3459   1.401       .  A
C3458      H3467   1.083       .  S
C3459      C3460   1.406       .  A
C3459      H3468   1.083       .  S
C3460      C3461   1.406       .  A
C3461      C3462   1.396       .  A
C3461      H3469   1.083       .  S
C3462      H3470   1.084       .  S
C3471      C3472   1.406       .  A
C3471      C3476   1.406       .  A
C3472      C3473   1.397       .  A
C3472      H3485   1.083       .  S
C3473      C3474   1.399       .  A
C3473      H3486   1.084       .  S
C3474      C3475   1.402       .  A
C3474      C3477   1.442       .  S
C3475      C3476   1.402       .  A
C3475      H3487   1.084       .  S
C3476      H3488   1.083       .  S
C3477      C3478   1.208       .  T
C3478      C3479   1.442       .  S
C3479      C3480   1.400       .  A
C3479      C3484   1.401       .  A
C3480      C3481   1.398       .  A
C3480      H3489   1.084       .  S
C3481      C3482   1.406       .  A
C3481      H3490   1.083       .  S
C3482      C3483   1.407       .  A
C3483      C3484   1.401       .  A
C3483      H3491   1.083       .  S
C3484      H3492   1.084       .  S
C3493      C3494   1.407       .  A
C3493      C3498   1.406       .  A
C3494      C3495   1.403       .  A
C3494      H3507   1.083       .  S
C3495      C3496   1.402       .  A
C3495      H3508   1.083       .  S
C3496      C3497   1.399       .  A
C3496      C3499   1.443       .  S
C3497      C3498   1.396       .  A
C3497      H3509   1.084       .  S
C3498      H3510   1.083       .  S
C3499      C3500   1.208       .  T
C3500      C3501   1.443       .  S
C3501      C3502   1.399       .  A
C3501      C3506   1.402       .  A
C3502      C3503   1.396       .  A
C3502      H3511   1.083       .  S
C3503      C3504   1.407       .  A
C3503      H3512   1.083       .  S
C3504      C3505   1.407       .  A
C3505      C3506   1.403       .  A
C3505      H3513   1.083       .  S
C3506      H3514   1.084       .  S
C3515      C3516   1.406       .  A
C3515      C3520   1.406       .  A
C3516      C3517   1.402       .  A
C3516      H3529   1.083       .  S
C3517      C3518   1.401       .  A
C3517      H3530   1.084       .  S
C3518      C3519   1.401       .  A
C3518      C3521   1.444       .  S
C3519      C3520   1.399       .  A
C3519      H3531   1.084       .  S
C3520      H3532   1.083       .  S
C3521      C3522   1.209       .  T
C3522      C3523   1.444       .  S
C3523      C3524   1.398       .  A
C3523      C3528   1.403       .  A
C3524      C3525   1.396       .  A
C3524      H3533   1.084       .  S
C3525      C3526   1.405       .  A
C3525      H3534   1.083       .  S
C3526      C3527   1.408       .  A
C3527      C3528   1.404       .  A
C3527      H3535   1.082       .  S
C3528      H3536   1.083       .  S
C3537      C3538   1.406       .  A
C3537      C3542   1.407       .  A
C3538      C3539   1.396       .  A
C3538      H3551   1.083       .  S
C3539      C3540   1.398       .  A
C3539      H3552   1.084       .  S
C3540      C3541   1.403       .  A
C3540      C3543   1.443       .  S
C3541      C3542   1.404       .  A
C3541      H3553   1.083       .  S
C3542      H3554   1.083       .  S
C3543      C3544   1.208       .  T
C3544      C3545   1.443       .  S
C3545      C3546   1.398       .  A
C3545      C3550   1.402       .  A
C3546      C3547   1.395       .  A
C3546      H3555   1.084       .  S
C3547      C3548   1.406       .  A
C3547      H3556   1.083       .  S
C3548      C3549   1.407       .  A
C3549      C3550   1.404       .  A
C3549      H3557   1.082       .  S
C3550      H3558   1.083       .  S
C3559      C3560   1.406       .  A
C3559      C3564   1.406       .  A
C3560      C3561   1.395       .  A
C3560      H3573   1.083       .  S
C3561      C3562   1.398       .  A
C3561      H3574   1.084       .  S
C3562      C3563   1.401       .  A
C3562      C3565   1.440       .  S
C3563      C3564   1.402       .  A
C3563      H3575   1.083       .  S
C3564      H3576   1.083       .  S
C3565      C3566   1.206       .  T
C3566      C3567   1.440       .  S
C3567      C3568   1.401       .  A
C3567      C3572   1.399       .  A
C3568      C3569   1.401       .  A
C3568      H3577   1.084       .  S
C3569      C3570   1.406       .  A
C3569      H3578   1.083       .  S
C3570      C3571   1.406       .  A
C3571      C3572   1.397       .  A
C3571      H3579   1.083       .  S
C3572      H3580   1.083       .  S
C3581      C3582   1.407       .  A
C3581      C3586   1.406       .  A
C3582      C3583   1.404       .  A
C3582      H3595   1.083       .  S
C3583      C3584   1.403       .  A
C3583      H3596   1.083       .  S
C3584      C3585   1.399       .  A
C3584      C3587   1.444       .  S
C3585      C3586   1.396       .  A
C3585      H3597   1.084       .  S
C3586      H3598   1.083       .  S
C3587      C3588   1.209       .  T
C3588      C3589   1.444       .  S
C3589      C3590   1.402       .  A
C3589      C3594   1.400       .  A
C3590      C3591   1.403       .  A
C3590      H3599   1.083       .  S
C3591      C3592   1.406       .  A
C3591      H3600   1.083       .  S
C3592      C3593   1.406       .  A
C3593      C3594   1.397       .  A
C3593      H3601   1.083       .  S
C3594      H3602   1.084       .  S
C3603      C3604   1.406       .  A
C3603      C3608   1.406       .  A
C3604      C3605   1.396       .  A
C3604      H3617   1.083       .  S
C3605      C3606   1.399       .  A
C3605      H3618   1.084       .  S
C3606      C3607   1.402       .  A
C3606      C3609   1.442       .  S
C3607      C3608   1.403       .  A
C3607      H3619   1.083       .  S
C3608      H3620   1.083       .  S
C3609      C3610   1.208       .  T
C3610      C3611   1.442       .  S
C3611      C3612   1.402       .  A
C3611      C3616   1.399       .  A
C3612      C3613   1.403       .  A
C3612      H3621   1.083       .  S
C3613      C3614   1.406       .  A
C3613      H3622   1.083       .  S
C3614      C3615   1.406       .  A
C3615      C3616   1.396       .  A
C3615      H3623   1.083       .  S
C3616      H3624   1.084       .  S
C3625      C3626   1.407       .  A
C3625      C3630   1.406       .  A
C3626      C3627   1.403       .  A
C3626      H3639   1.083       .  S
C3627      C3628   1.402       .  A
C3627      H3640   1.083       .  S
C3628      C3629   1.400       .  A
C3628      C3631   1.445       .  S
C3629      C3630   1.398       .  A
C3629      H3641   1.084       .  S
C3630      H3642   1.083       .  S
C3631      C3632   1.209       .  T
C3632      C3633   1.445       .  S
C3633      C3634   1.400       .  A
C3633      C3638   1.402       .  A
C3634      C3635   1.398       .  A
C3634      H3643   1.084       .  S
C3635      C3636   1.406       .  A
C3635      H3644   1.083       .  S
C3636      C3637   1.407       .  A
C3637      C3638   1.403       .  A
C3637      H3645   1.083       .  S
C3638      H3646   1.083       .  S
C3647      C3648   1.406       .  A
C3647      C3652   1.407       .  A
C3648      C3649   1.397       .  A
C3648      H3661   1.083       .  S
C3649      C3650   1.399       .  A
C3649      H3662   1.084       .  S
C3650      C3651   1.402       .  A
C3650      C3653   1.444       .  S
C3651      C3652   1.404       .  A
C3651      H3663   1.083       .  S
C3652      H3664   1.083       .  S
C3653      C3654   1.209       .  T
C3654      C3655   1.444       .  S
C3655      C3656   1.401       .  A
C3655      C3660   1.400       .  A
C3656      C3657   1.401       .  A
C3656      H3665   1.083       .  S
C3657      C3658   1.407       .  A
C3657      H3666   1.083       .  S
C3658      C3659   1.406       .  A
C3659      C3660   1.399       .  A
C3659      H3667   1.083       .  S
C3660      H3668   1.084       .  S
C3669      C3670   1.406       .  A
C3669      C3674   1.407       .  A
C3670      C3671   1.401       .  A
C3670      H3683   1.083       .  S
C3671      C3672   1.401       .  A
C3671      H3684   1.084       .  S
C3672      C3673   1.400       .  A
C3672      C3675   1.443       .  S
C3673      C3674   1.399       .  A
C3673      H3685   1.083       .  S
C3674      H3686   1.083       .  S
C3675      C3676   1.208       .  T
C3676      C3677   1.442       .  S
C3677      C3678   1.399       .  A
C3677      C3682   1.402       .  A
C3678      C3679   1.397       .  A
C3678      H3687   1.084       .  S
C3679      C3680   1.406       .  A
C3679      H3688   1.083       .  S
C3680      C3681   1.407       .  A
C3681      C3682   1.402       .  A
C3681      H3689   1.083       .  S
C3682      H3690   1.084       .  S
C3691      C3692   1.407       .  A
C3691      C3696   1.406       .  A
C3692      C3693   1.403       .  A
C3692      H3705   1.083       .  S
C3693      C3694   1.402       .  A
C3693      H3706   1.083       .  S
C3694      C3695   1.400       .  A
C3694      C3697   1.445       .  S
C3695      C3696   1.398       .  A
C3695      H3707   1.084       .  S
C3696      H3708   1.083       .  S
C3697      C3698   1.209       .  T
C3698      C3699   1.445       .  S
C3699      C3700   1.402       .  A
C3699      C3704   1.400       .  A
C3700      C3701   1.404       .  A
C3700      H3709   1.084       .  S
C3701      C3702   1.407       .  A
C3701      H3710   1.083       .  S
C3702      C3703   1.407       .  A
C3703      C3704   1.398       .  A
C3703      H3711   1.083       .  S
C3704      H3712   1.084       .  S
C3713      C3714   1.407       .  A
C3713      C3718   1.407       .  A
C3714      C3715   1.404       .  A
C3714      H3727   1.083       .  S
C3715      C3716   1.402       .  A
C3715      H3728   1.083       .  S
C3716      C3717   1.399       .  A
C3716      C3719   1.444       .  S
C3717      C3718   1.397       .  A
C3717      H3729   1.084       .  S
C3718      H3730   1.083       .  S
C3719      C3720   1.208       .  T
C3720      C3721   1.443       .  S
C3721      C3722   1.399       .  A
C3721      C3726   1.403       .  A
C3722      C3723   1.396       .  A
C3722      H3731   1.084       .  S
C3723      C3724   1.406       .  A
C3723      H3732   1.083       .  S
C3724      C3725   1.406       .  A
C3725      C3726   1.404       .  A
C3725      H3733   1.082       .  S
C3726      H3734   1.084       .  S
C3735      C3736   1.406       .  A
C3735      C3740   1.406       .  A
C3736      C3737   1.397       .  A
C3736      H3749   1.083       .  S
C3737      C3738   1.399       .  A
C3737      H3750   1.084       .  S
C3738      C3739   1.402       .  A
C3738      C3741   1.443       .  S
C3739      C3740   1.402       .  A
C3739      H3751   1.084       .  S
C3740      H3752   1.083       .  S
C3741      C3742   1.208       .  T
C3742      C3743   1.443       .  S
C3743      C3744   1.401       .  A
C3743      C3748   1.400       .  A
C3744      C3745   1.402       .  A
C3744      H3753   1.083       .  S
C3745      C3746   1.407       .  A
C3745      H3754   1.083       .  S
C3746      C3747   1.406       .  A
C3747      C3748   1.398       .  A
C3747      H3755   1.083       .  S
C3748      H3756   1.083       .  S
C3757      C3758   1.406       .  A
C3757      C3762   1.407       .  A
C3758      C3759   1.400       .  A
C3758      H3771   1.083       .  S
C3759      C3760   1.400       .  A
C3759      H3772   1.084       .  S
C3760      C3761   1.401       .  A
C3760      C3763   1.443       .  S
C3761      C3762   1.398       .  A
C3761      H3773   1.083       .  S
C3762      H3774   1.083       .  S
C3763      C3764   1.208       .  T
C3764      C3765   1.442       .  S
C3765      C3766   1.398       .  A
C3765      C3770   1.403       .  A
C3766      C3767   1.395       .  A
C3766      H3775   1.084       .  S
C3767      C3768   1.406       .  A
C3767      H3776   1.083       .  S
C3768      C3769   1.407       .  A
C3769      C3770   1.405       .  A
C3769      H3777   1.083       .  S
C3770      H3778   1.083       .  S
C3779      C3780   1.407       .  A
C3779      C3784   1.407       .  A
C3780      C3781   1.399       .  A
C3780      H3793   1.083       .  S
C3781      C3782   1.400       .  A
C3781      H3794   1.083       .  S
C3782      C3783   1.402       .  A
C3782      C3785   1.446       .  S
C3783      C3784   1.403       .  A
C3783      H3795   1.083       .  S
C3784      H3796   1.083       .  S
C3785      C3786   1.210       .  T
C3786      C3787   1.446       .  S
C3787      C3788   1.402       .  A
C3787      C3792   1.400       .  A
C3788      C3789   1.404       .  A
C3788      H3797   1.084       .  S
C3789      C3790   1.406       .  A
C3789      H3798   1.083       .  S
C3790      C3791   1.407       .  A
C3791      C3792   1.399       .  A
C3791      H3799   1.083       .  S
C3792      H3800   1.084       .  S
C3801      C3802   1.406       .  A
C3801      C3806   1.407       .  A
C3802      C3803   1.397       .  A
C3802      H3815   1.083       .  S
C3803      C3804   1.399       .  A
C3803      H3816   1.084       .  S
C3804      C3805   1.403       .  A
C3804      C3807   1.445       .  S
C3805      C3806   1.404       .  A
C3805      H3817   1.083       .  S
C3806      H3818   1.083       .  S
C3807      C3808   1.210       .  T
C3808      C3809   1.446       .  S
C3809      C3810   1.402       .  A
C3809      C3814   1.400       .  A
C3810      C3811   1.404       .  A
C3810      H3819   1.083       .  S
C3811      C3812   1.407       .  A
C3811      H3820   1.083       .  S
C3812      C3813   1.406       .  A
C3813      C3814   1.398       .  A
C3813      H3821   1.083       .  S
C3814      H3822   1.084       .  S
C3823      C3824   1.406       .  A
C3823      C3828   1.407       .  A
C3824      C3825   1.402       .  A
C3824      H3837   1.083       .  S
C3825      C3826   1.402       .  A
C3825      H3838   1.083       .  S
C3826      C3827   1.399       .  A
C3826      C3829   1.442       .  S
C3827      C3828   1.396       .  A
C3827      H3839   1.084       .  S
C3828      H3840   1.083       .  S
C3829      C3830   1.207       .  T
C3830      C3831   1.442       .  S
C3831      C3832   1.398       .  A
C3831      C3836   1.402       .  A
C3832      C3833   1.395       .  A
C3832      H3841   1.084       .  S
C3833      C3834   1.406       .  A
C3833      H3842   1.083       .  S
C3834      C3835   1.407       .  A
C3835      C3836   1.403       .  A
C3835      H3843   1.083       .  S
C3836      H3844   1.083       .  S
C3845      C3846   1.405       .  A
C3845      C3850   1.406       .  A
C3846      C3847   1.400       .  A
C3846      H3859   1.083       .  S
C3847      C3848   1.400       .  A
C3847      H3860   1.084       .  S
C3848      C3849   1.399       .  A
C3848      C3851   1.439       .  S
C3849      C3850   1.397       .  A
C3849      H3861   1.084       .  S
C3850      H3862   1.083       .  S
C3851      C3852   1.206       .  T
C3852      C3853   1.439       .  S
C3853      C3854   1.399       .  A
C3853      C3858   1.401       .  A
C3854      C3855   1.396       .  A
C3854      H3863   1.083       .  S
C3855      C3856   1.406       .  A
C3855      H3864   1.083       .  S
C3856      C3857   1.406       .  A
C3857      C3858   1.401       .  A
C3857      H3865   1.083       .  S
C3858      H3866   1.084       .  S
C3867      C3868   1.407       .  A
C3867      C3872   1.406       .  A
C3868      C3869   1.404       .  A
C3868      H3881   1.083       .  S
C3869      C3870   1.402       .  A
C3869      H3882   1.083       .  S
C3870      C3871   1.399       .  A
C3870      C3873   1.445       .  S
C3871      C3872   1.397       .  A
C3871      H3883   1.084       .  S
C3872      H3884   1.083       .  S
C3873      C3874   1.209       .  T
C3874      C3875   1.445       .  S
C3875      C3876   1.400       .  A
C3875      C3880   1.402       .  A
C3876      C3877   1.398       .  A
C3876      H3885   1.084       .  S
C3877      C3878   1.406       .  A
C3877      H3886   1.083       .  S
C3878      C3879   1.407       .  A
C3879      C3880   1.403       .  A
C3879      H3887   1.083       .  S
C3880      H3888   1.083       .  S
C3889      C3890   1.407       .  A
C3889      C3894   1.406       .  A
C3890      C3891   1.402       .  A
C3890      H3903   1.083       .  S
C3891      C3892   1.402       .  A
C3891      H3904   1.084       .  S
C3892      C3893   1.399       .  A
C3892      C3895   1.443       .  S
C3893      C3894   1.397       .  A
C3893      H3905   1.084       .  S
C3894      H3906   1.083       .  S
C3895      C3896   1.208       .  T
C3896      C3897   1.443       .  S
C3897      C3898   1.400       .  A
C3897      C3902   1.401       .  A
C3898      C3899   1.398       .  A
C3898      H3907   1.084       .  S
C3899      C3900   1.406       .  A
C3899      H3908   1.083       .  S
C3900      C3901   1.407       .  A
C3901      C3902   1.402       .  A
C3901      H3909   1.083       .  S
C3902      H3910   1.083       .  S
C3911      C3912   1.407       .  A
C3911      C3916   1.406       .  A
C3912      C3913   1.404       .  A
C3912      H3925   1.082       .  S
C3913      C3914   1.402       .  A
C3913      H3926   1.083       .  S
C3914      C3915   1.398       .  A
C3914      C3917   1.442       .  S
C3915      C3916   1.395       .  A
C3915      H3927   1.084       .  S
C3916      H3928   1.083       .  S
C3917      C3918   1.207       .  T
C3918      C3919   1.442       .  S
C3919      C3920   1.399       .  A
C3919      C3924   1.402       .  A
C3920      C3921   1.395       .  A
C3920      H3929   1.084       .  S
C3921      C3922   1.405       .  A
C3921      H3930   1.083       .  S
C3922      C3923   1.406       .  A
C3923      C3924   1.403       .  A
C3923      H3931   1.083       .  S
C3924      H3932   1.083       .  S
C3933      C3934   1.406       .  A
C3933      C3938   1.407       .  A
C3934      C3935   1.402       .  A
C3934      H3947   1.083       .  S
C3935      C3936   1.401       .  A
C3935      H3948   1.083       .  S
C3936      C3937   1.400       .  A
C3936      C3939   1.444       .  S
C3937      C3938   1.399       .  A
C3937      H3949   1.084       .  S
C3938      H3950   1.083       .  S
C3939      C3940   1.209       .  T
C3940      C3941   1.444       .  S
C3941      C3942   1.400       .  A
C3941      C3946   1.402       .  A
C3942      C3943   1.398       .  A
C3942      H3951   1.084       .  S
C3943      C3944   1.406       .  A
C3943      H3952   1.083       .  S
C3944      C3945   1.406       .  A
C3945      C3946   1.402       .  A
C3945      H3953   1.083       .  S
C3946      H3954   1.083       .  S
C3955      C3956   1.406       .  A
C3955      C3960   1.406       .  A
C3956      C3957   1.397       .  A
C3956      H3969   1.083       .  S
C3957      C3958   1.399       .  A
C3957      H3970   1.084       .  S
C3958      C3959   1.402       .  A
C3958      C3961   1.442       .  S
C3959      C3960   1.402       .  A
C3959      H3971   1.083       .  S
C3960      H3972   1.083       .  S
C3961      C3962   1.208       .  T
C3962      C3963   1.442       .  S
C3963      C3964   1.402       .  A
C3963      C3968   1.399       .  A
C3964      C3965   1.403       .  A
C3964      H3973   1.083       .  S
C3965      C3966   1.407       .  A
C3965      H3974   1.083       .  S
C3966      C3967   1.406       .  A
C3967      C3968   1.396       .  A
C3967      H3975   1.083       .  S
C3968      H3976   1.084       .  S
C3977      C3978   1.407       .  A
C3977      C3982   1.407       .  A
C3978      C3979   1.395       .  A
C3978      H3991   1.083       .  S
C3979      C3980   1.398       .  A
C3979      H3992   1.084       .  S
C3980      C3981   1.403       .  A
C3980      C3983   1.443       .  S
C3981      C3982   1.405       .  A
C3981      H3993   1.083       .  S
C3982      H3994   1.083       .  S
C3983      C3984   1.208       .  T
C3984      C3985   1.444       .  S
C3985      C3986   1.402       .  A
C3985      C3990   1.399       .  A
C3986      C3987   1.403       .  A
C3986      H3995   1.083       .  S
C3987      C3988   1.406       .  A
C3987      H3996   1.083       .  S
C3988      C3989   1.407       .  A
C3989      C3990   1.397       .  A
C3989      H3997   1.083       .  S
C3990      H3998   1.084       .  S
C3999      C4000   1.406       .  A
C3999      C4004   1.407       .  A
C4000      C4001   1.396       .  A
C4000      H4013   1.083       .  S
C4001      C4002   1.399       .  A
C4001      H4014   1.083       .  S
C4002      C4003   1.401       .  A
C4002      C4005   1.442       .  S
C4003      C4004   1.402       .  A
C4003      H4015   1.083       .  S
C4004      H4016   1.082       .  S
C4005      C4006   1.207       .  T
C4006      C4007   1.442       .  S
C4007      C4008   1.402       .  A
C4007      C4012   1.398       .  A
C4008      C4009   1.403       .  A
C4008      H4017   1.083       .  S
C4009      C4010   1.407       .  A
C4009      H4018   1.083       .  S
C4010      C4011   1.406       .  A
C4011      C4012   1.395       .  A
C4011      H4019   1.083       .  S
C4012      H4020   1.084       .  S
C4021      C4022   1.407       .  A
C4021      C4026   1.407       .  A
C4022      C4023   1.403       .  A
C4022      H4035   1.083       .  S
C4023      C4024   1.402       .  A
C4023      H4036   1.083       .  S
C4024      C4025   1.400       .  A
C4024      C4027   1.445       .  S
C4025      C4026   1.398       .  A
C4025      H4037   1.084       .  S
C4026      H4038   1.083       .  S
C4027      C4028   1.209       .  T
C4028      C4029   1.445       .  S
C4029      C4030   1.400       .  A
C4029      C4034   1.402       .  A
C4030      C4031   1.399       .  A
C4030      H4039   1.084       .  S
C4031      C4032   1.407       .  A
C4031      H4040   1.083       .  S
C4032      C4033   1.407       .  A
C4033      C4034   1.403       .  A
C4033      H4041   1.083       .  S
C4034      H4042   1.083       .  S
C4043      C4044   1.407       .  A
C4043      C4048   1.408       .  A
C4044      C4045   1.404       .  A
C4044      H4057   1.083       .  S
C4045      C4046   1.402       .  A
C4045      H4058   1.084       .  S
C4046      C4047   1.401       .  A
C4046      C4049   1.448       .  S
C4047      C4048   1.400       .  A
C4047      H4059   1.083       .  S
C4048      H4060   1.083       .  S
C4049      C4050   1.211       .  T
C4050      C4051   1.448       .  S
C4051      C4052   1.404       .  A
C4051      C4056   1.399       .  A
C4052      C4053   1.406       .  A
C4052      H4061   1.083       .  S
C4053      C4054   1.408       .  A
C4053      H4062   1.083       .  S
C4054      C4055   1.407       .  A
C4055      C4056   1.398       .  A
C4055      H4063   1.083       .  S
C4056      H4064   1.084       .  S
C4065      C4066   1.406       .  A
C4065      C4070   1.407       .  A
C4066      C4067   1.403       .  A
C4066      H4079   1.083       .  S
C4067      C4068   1.402       .  A
C4067      H4080   1.084       .  S
C4068      C4069   1.400       .  A
C4068      C4071   1.446       .  S
C4069      C4070   1.399       .  A
C4069      H4081   1.083       .  S
C4070      H4082   1.083       .  S
C4071      C4072   1.209       .  T
C4072      C4073   1.445       .  S
C4073      C4074   1.399       .  A
C4073      C4078   1.402       .  A
C4074      C4075   1.398       .  A
C4074      H4083   1.084       .  S
C4075      C4076   1.407       .  A
C4075      H4084   1.083       .  S
C4076      C4077   1.406       .  A
C4077      C4078   1.403       .  A
C4077      H4085   1.083       .  S
C4078      H4086   1.083       .  S
C4087      C4088   1.407       .  A
C4087      C4092   1.407       .  A
C4088      C4089   1.399       .  A
C4088      H4101   1.083       .  S
C4089      C4090   1.400       .  A
C4089      H4102   1.084       .  S
C4090      C4091   1.402       .  A
C4090      C4093   1.446       .  S
C4091      C4092   1.403       .  A
C4091      H4103   1.083       .  S
C4092      H4104   1.083   1_565  S
C4093      C4094   1.210       .  T
C4094      C4095   1.446       .  S
C4095      C4096   1.403       .  A
C4095      C4100   1.400       .  A
C4096      C4097   1.404       .  A
C4096      H4105   1.083       .  S
C4097      C4098   1.407       .  A
C4097      H4106   1.083       .  S
C4098      C4099   1.407       .  A
C4099      C4100   1.398       .  A
C4099      H4107   1.083       .  S
C4100      H4108   1.084       .  S
C4109      C4110   1.407       .  A
C4109      C4114   1.407       .  A
C4110      C4111   1.402       .  A
C4110      H4123   1.083       .  S
C4111      C4112   1.402       .  A
C4111      H4124   1.084       .  S
C4112      C4113   1.400       .  A
C4112      C4115   1.444       .  S
C4113      C4114   1.398       .  A
C4113      H4125   1.084       .  S
C4114      H4126   1.083       .  S
C4115      C4116   1.208       .  T
C4116      C4117   1.444       .  S
C4117      C4118   1.400       .  A
C4117      C4122   1.402       .  A
C4118      C4119   1.398       .  A
C4118      H4127   1.084       .  S
C4119      C4120   1.406       .  A
C4119      H4128   1.083       .  S
C4120      C4121   1.407       .  A
C4121      C4122   1.402       .  A
C4121      H4129   1.083       .  S
C4122      H4130   1.083       .  S
C4131      C4132   1.406       .  A
C4131      C4136   1.406       .  A
C4132      C4133   1.396       .  A
C4132      H4145   1.083       .  S
C4133      C4134   1.399       .  A
C4133      H4146   1.084       .  S
C4134      C4135   1.402       .  A
C4134      C4137   1.444       .  S
C4135      C4136   1.404       .  A
C4135      H4147   1.083       .  S
C4136      H4148   1.083       .  S
C4137      C4138   1.208       .  T
C4138      C4139   1.444       .  S
C4139      C4140   1.402       .  A
C4139      C4144   1.399       .  A
C4140      C4141   1.404       .  A
C4140      H4149   1.084       .  S
C4141      C4142   1.407       .  A
C4141      H4150   1.082       .  S
C4142      C4143   1.406       .  A
C4143      C4144   1.396       .  A
C4143      H4151   1.083       .  S
C4144      H4152   1.083       .  S
C4153      C4154   1.406       .  A
C4153      C4158   1.406       .  A
C4154      C4155   1.401       .  A
C4154      H4167   1.083       .  S
C4155      C4156   1.401       .  A
C4155      H4168   1.084       .  S
C4156      C4157   1.400       .  A
C4156      C4159   1.442       .  S
C4157      C4158   1.397       .  A
C4157      H4169   1.084       .  S
C4158      H4170   1.083       .  S
C4159      C4160   1.207       .  T
C4160      C4161   1.442       .  S
C4161      C4162   1.402       .  A
C4161      C4166   1.399       .  A
C4162      C4163   1.403       .  A
C4162      H4171   1.083       .  S
C4163      C4164   1.407       .  A
C4163      H4172   1.083       .  S
C4164      C4165   1.406       .  A
C4165      C4166   1.396       .  A
C4165      H4173   1.083       .  S
C4166      H4174   1.084       .  S
C4175      C4176   1.406       .  A
C4175      C4180   1.406       .  A
C4176      C4177   1.396       .  A
C4176      H4189   1.083       .  S
C4177      C4178   1.399       .  A
C4177      H4190   1.083       .  S
C4178      C4179   1.402       .  A
C4178      C4181   1.441       .  S
C4179      C4180   1.402       .  A
C4179      H4191   1.084       .  S
C4180      H4192   1.083       .  S
C4181      C4182   1.207       .  T
C4182      C4183   1.441       .  S
C4183      C4184   1.401       .  A
C4183      C4188   1.400       .  A
C4184      C4185   1.401       .  A
C4184      H4193   1.083       .  S
C4185      C4186   1.406       .  A
C4185      H4194   1.083       .  S
C4186      C4187   1.406       .  A
C4187      C4188   1.397       .  A
C4187      H4195   1.083       .  S
C4188      H4196   1.084       .  S
C4197      C4198   1.407       .  A
C4197      C4202   1.406       .  A
C4198      C4199   1.395       .  A
C4198      H4211   1.083       .  S
C4199      C4200   1.398       .  A
C4199      H4212   1.084       .  S
C4200      C4201   1.402       .  A
C4200      C4203   1.442       .  S
C4201      C4202   1.403       .  A
C4201      H4213   1.083       .  S
C4202      H4214   1.083       .  S
C4203      C4204   1.207       .  T
C4204      C4205   1.442       .  S
C4205      C4206   1.401       .  A
C4205      C4210   1.399       .  A
C4206      C4207   1.402       .  A
C4206      H4215   1.084       .  S
C4207      C4208   1.406       .  A
C4207      H4216   1.083       .  S
C4208      C4209   1.407       .  A
C4209      C4210   1.397       .  A
C4209      H4217   1.083       .  S
C4210      H4218   1.083       .  S
C4219      C4220   1.407       .  A
C4219      C4224   1.407       .  A
C4220      C4221   1.394       .  A
C4220      H4233   1.083       .  S
C4221      C4222   1.397       .  A
C4221      H4234   1.084       .  S
C4222      C4223   1.404       .  A
C4222      C4225   1.443       .  S
C4223      C4224   1.405       .  A
C4223      H4235   1.083       .  S
C4224      H4236   1.082       .  S
C4225      C4226   1.208       .  T
C4226      C4227   1.443       .  S
C4227      C4228   1.402       .  A
C4227      C4232   1.400       .  A
C4228      C4229   1.402       .  A
C4228      H4237   1.083       .  S
C4229      C4230   1.406       .  A
C4229      H4238   1.083       .  S
C4230      C4231   1.407       .  A
C4231      C4232   1.397       .  A
C4231      H4239   1.083       .  S
C4232      H4240   1.084       .  S
C4241      C4242   1.407       .  A
C4241      C4246   1.407       .  A
C4242      C4243   1.398       .  A
C4242      H4255   1.083       .  S
C4243      C4244   1.399       .  A
C4243      H4256   1.084       .  S
C4244      C4245   1.402       .  A
C4244      C4247   1.445       .  S
C4245      C4246   1.403       .  A
C4245      H4257   1.084       .  S
C4246      H4258   1.083       .  S
C4247      C4248   1.209       .  T
C4248      C4249   1.445       .  S
C4249      C4250   1.402       .  A
C4249      C4254   1.400       .  A
C4250      C4251   1.403       .  A
C4250      H4259   1.084       .  S
C4251      C4252   1.406       .  A
C4251      H4260   1.083       .  S
C4252      C4253   1.407       .  A
C4253      C4254   1.398       .  A
C4253      H4261   1.083       .  S
C4254      H4262   1.084       .  S
C4263      C4264   1.406       .  A
C4263      C4268   1.407       .  A
C4264      C4265   1.402       .  A
C4264      H4277   1.083       .  S
C4265      C4266   1.402       .  A
C4265      H4278   1.084       .  S
C4266      C4267   1.398       .  A
C4266      C4269   1.441       .  S
C4267      C4268   1.396       .  A
C4267      H4279   1.084       .  S
C4268      H4280   1.083       .  S
C4269      C4270   1.207       .  T
C4270      C4271   1.441       .  S
C4271      C4272   1.402       .  A
C4271      C4276   1.398       .  A
C4272      C4273   1.403       .  A
C4272      H4281   1.083       .  S
C4273      C4274   1.406       .  A
C4273      H4282   1.083       .  S
C4274      C4275   1.406       .  A
C4275      C4276   1.396       .  A
C4275      H4283   1.083       .  S
C4276      H4284   1.084       .  S
C4285      C4286   1.407       .  A
C4285      C4290   1.407       .  A
C4286      C4287   1.403       .  A
C4286      H4299   1.083       .  S
C4287      C4288   1.402       .  A
C4287      H4300   1.083       .  S
C4288      C4289   1.401       .  A
C4288      C4291   1.448       .  S
C4289      C4290   1.400       .  A
C4289      H4301   1.084       .  S
C4290      H4302   1.083       .  S
C4291      C4292   1.211       .  T
C4292      C4293   1.448       .  S
C4293      C4294   1.399       .  A
C4293      C4298   1.403       .  A
C4294      C4295   1.398       .  A
C4294      H4303   1.084       .  S
C4295      C4296   1.407       .  A
C4295      H4304   1.083       .  S
C4296      C4297   1.407       .  A
C4297      C4298   1.405       .  A
C4297      H4305   1.083       .  S
C4298      H4306   1.083       .  S
C4307      C4308   1.406       .  A
C4307      C4312   1.407       .  A
C4308      C4309   1.395       .  A
C4308      H4321   1.083       .  S
C4309      C4310   1.398       .  A
C4309      H4322   1.084       .  S
C4310      C4311   1.402       .  A
C4310      C4313   1.441       .  S
C4311      C4312   1.403       .  A
C4311      H4323   1.083       .  S
C4312      H4324   1.083       .  S
C4313      C4314   1.207       .  T
C4314      C4315   1.441       .  S
C4315      C4316   1.401       .  A
C4315      C4320   1.399       .  A
C4316      C4317   1.401       .  A
C4316      H4325   1.083       .  S
C4317      C4318   1.407       .  A
C4317      H4326   1.083       .  S
C4318      C4319   1.405       .  A
C4319      C4320   1.397       .  A
C4319      H4327   1.083       .  S
C4320      H4328   1.084       .  S
C4329      C4330   1.406       .  A
C4329      C4334   1.405       .  A
C4330      C4331   1.396       .  A
C4330      H4343   1.083       .  S
C4331      C4332   1.399       .  A
C4331      H4344   1.083       .  S
C4332      C4333   1.400       .  A
C4332      C4335   1.438       .  S
C4333      C4334   1.400       .  A
C4333      H4345   1.084       .  S
C4334      H4346   1.083       .  S
C4335      C4336   1.205       .  T
C4336      C4337   1.437       .  S
C4337      C4338   1.401       .  A
C4337      C4342   1.398       .  A
C4338      C4339   1.401       .  A
C4338      H4347   1.084       .  S
C4339      C4340   1.405       .  A
C4339      H4348   1.083       .  S
C4340      C4341   1.406       .  A
C4341      C4342   1.395       .  A
C4341      H4349   1.083       .  S
C4342      H4350   1.084       .  S
C4351      C4352   1.407       .  A
C4351      C4356   1.407       .  A
C4352      C4353   1.398       .  A
C4352      H4365   1.083       .  S
C4353      C4354   1.399       .  A
C4353      H4366   1.084       .  S
C4354      C4355   1.402       .  A
C4354      C4357   1.444       .  S
C4355      C4356   1.403       .  A
C4355      H4367   1.083       .  S
C4356      H4368   1.083       .  S
C4357      C4358   1.208       .  T
C4358      C4359   1.443       .  S
C4359      C4360   1.402       .  A
C4359      C4364   1.399       .  A
C4360      C4361   1.403       .  A
C4360      H4369   1.084       .  S
C4361      C4362   1.407       .  A
C4361      H4370   1.083       .  S
C4362      C4363   1.406       .  A
C4363      C4364   1.396       .  A
C4363      H4371   1.083       .  S
C4364      H4372   1.084       .  S
C4373      C4374   1.407       .  A
C4373      C4378   1.406       .  A
C4374      C4375   1.398       .  A
C4374      H4387   1.083       .  S
C4375      C4376   1.400       .  A
C4375      H4388   1.083       .  S
C4376      C4377   1.402       .  A
C4376      C4379   1.444       .  S
C4377      C4378   1.402       .  A
C4377      H4389   1.084       .  S
C4378      H4390   1.083       .  S
C4379      C4380   1.209       .  T
C4380      C4381   1.444       .  S
C4381      C4382   1.399       .  A
C4381      C4386   1.403       .  A
C4382      C4383   1.396       .  A
C4382      H4391   1.084       .  S
C4383      C4384   1.406       .  A
C4383      H4392   1.083       .  S
C4384      C4385   1.407       .  A
C4385      C4386   1.404       .  A
C4385      H4393   1.083       .  S
C4386      H4394   1.083       .  S
C4395      C4396   1.407       .  A
C4395      C4400   1.407       .  A
C4396      C4397   1.397       .  A
C4396      H4409   1.083       .  S
C4397      C4398   1.399       .  A
C4397      H4410   1.084       .  S
C4398      C4399   1.403       .  A
C4398      C4401   1.445       .  S
C4399      C4400   1.404       .  A
C4399      H4411   1.083       .  S
C4400      H4412   1.083       .  S
C4401      C4402   1.209       .  T
C4402      C4403   1.445       .  S
C4403      C4404   1.402       .  A
C4403      C4408   1.399       .  A
C4404      C4405   1.403       .  A
C4404      H4413   1.084       .  S
C4405      C4406   1.407       .  A
C4405      H4414   1.083       .  S
C4406      C4407   1.406       .  A
C4407      C4408   1.397       .  A
C4407      H4415   1.083       .  S
C4408      H4416   1.084       .  S
C4417      C4418   1.406       .  A
C4417      C4422   1.407       .  A
C4418      C4419   1.400       .  A
C4418      H4431   1.083   1_655  S
C4419      C4420   1.400       .  A
C4419      H4432   1.083       .  S
C4420      C4421   1.399       .  A
C4420      C4423   1.438       .  S
C4421      C4422   1.397       .  A
C4421      H4433   1.084       .  S
C4422      H4434   1.083       .  S
C4423      C4424   1.205       .  T
C4424      C4425   1.438       .  S
C4425      C4426   1.398       .  A
C4425      C4430   1.401       .  A
C4426      C4427   1.395       .  A
C4426      H4435   1.084       .  S
C4427      C4428   1.406       .  A
C4427      H4436   1.083       .  S
C4428      C4429   1.405       .  A
C4429      C4430   1.400       .  A
C4429      H4437   1.083       .  S
C4430      H4438   1.084       .  S
C4439      C4440   1.407       .  A
C4439      C4444   1.406       .  A
C4440      C4441   1.403       .  A
C4440      H4453   1.082       .  S
C4441      C4442   1.402       .  A
C4441      H4454   1.084       .  S
C4442      C4443   1.399       .  A
C4442      C4445   1.445       .  S
C4443      C4444   1.397       .  A
C4443      H4455   1.084       .  S
C4444      H4456   1.083       .  S
C4445      C4446   1.209       .  T
C4446      C4447   1.446       .  S
C4447      C4448   1.400       .  A
C4447      C4452   1.402       .  A
C4448      C4449   1.400       .  A
C4448      H4457   1.083       .  S
C4449      C4450   1.407       .  A
C4449      H4458   1.083       .  S
C4450      C4451   1.407       .  A
C4451      C4452   1.403       .  A
C4451      H4459   1.083   1_554  S
C4452      H4460   1.084       .  S
C4461      C4462   1.407       .  A
C4461      C4466   1.407       .  A
C4462      C4463   1.402       .  A
C4462      H4475   1.083       .  S
C4463      C4464   1.402       .  A
C4463      H4476   1.083       .  S
C4464      C4465   1.400       .  A
C4464      C4467   1.444       .  S
C4465      C4466   1.399       .  A
C4465      H4477   1.084       .  S
C4466      H4478   1.083       .  S
C4467      C4468   1.209       .  T
C4468      C4469   1.444       .  S
C4469      C4470   1.400       .  A
C4469      C4474   1.402       .  A
C4470      C4471   1.399       .  A
C4470      H4479   1.083       .  S
C4471      C4472   1.406       .  A
C4471      H4480   1.083       .  S
C4472      C4473   1.407       .  A
C4473      C4474   1.402       .  A
C4473      H4481   1.083       .  S
C4474      H4482   1.083       .  S
C4483      C4484   1.406       .  A
C4483      C4488   1.406       .  A
C4484      C4485   1.398       .  A
C4484      H4497   1.083       .  S
C4485      C4486   1.400       .  A
C4485      H4498   1.084       .  S
C4486      C4487   1.400       .  A
C4486      C4489   1.441       .  S
C4487      C4488   1.400       .  A
C4487      H4499   1.083       .  S
C4488      H4500   1.083       .  S
C4489      C4490   1.207       .  T
C4490      C4491   1.441       .  S
C4491      C4492   1.402       .  A
C4491      C4496   1.398       .  A
C4492      C4493   1.404       .  A
C4492      H4501   1.083       .  S
C4493      C4494   1.407       .  A
C4493      H4502   1.083       .  S
C4494      C4495   1.406       .  A
C4495      C4496   1.395       .  A
C4495      H4503   1.083       .  S
C4496      H4504   1.084       .  S
C4505      C4506   1.406       .  A
C4505      C4510   1.406       .  A
C4506      C4507   1.395       .  A
C4506      H4519   1.083       .  S
C4507      C4508   1.398       .  A
C4507      H4520   1.084       .  S
C4508      C4509   1.402       .  A
C4508      C4511   1.441       .  S
C4509      C4510   1.402       .  A
C4509      H4521   1.083       .  S
C4510      H4522   1.083       .  S
C4511      C4512   1.207       .  T
C4512      C4513   1.441       .  S
C4513      C4514   1.401       .  A
C4513      C4518   1.400       .  A
C4514      C4515   1.402       .  A
C4514      H4523   1.084       .  S
C4515      C4516   1.406       .  A
C4515      H4524   1.083       .  S
C4516      C4517   1.406       .  A
C4517      C4518   1.397       .  A
C4517      H4525   1.083       .  S
C4518      H4526   1.083       .  S
C4527      C4528   1.407       .  A
C4527      C4532   1.407       .  A
C4528      C4529   1.399       .  A
C4528      H4541   1.083       .  S
C4529      C4530   1.400       .  A
C4529      H4542   1.084       .  S
C4530      C4531   1.402       .  A
C4530      C4533   1.446       .  S
C4531      C4532   1.403       .  A
C4531      H4543   1.084       .  S
C4532      H4544   1.083       .  S
C4533      C4534   1.210       .  T
C4534      C4535   1.446       .  S
C4535      C4536   1.399       .  A
C4535      C4540   1.403       .  A
C4536      C4537   1.398       .  A
C4536      H4545   1.084       .  S
C4537      C4538   1.407       .  A
C4537      H4546   1.083       .  S
C4538      C4539   1.407       .  A
C4539      C4540   1.404       .  A
C4539      H4547   1.083       .  S
C4540      H4548   1.083       .  S
C4549      C4550   1.406       .  A
C4549      C4554   1.407       .  A
C4550      C4551   1.398       .  A
C4550      H4563   1.083       .  S
C4551      C4552   1.400       .  A
C4551      H4564   1.084       .  S
C4552      C4553   1.401       .  A
C4552      C4555   1.443       .  S
C4553      C4554   1.402       .  A
C4553      H4565   1.083       .  S
C4554      H4566   1.083       .  S
C4555      C4556   1.208       .  T
C4556      C4557   1.443       .  S
C4557      C4558   1.402       .  A
C4557      C4562   1.399       .  A
C4558      C4559   1.403       .  A
C4558      H4567   1.083       .  S
C4559      C4560   1.407       .  A
C4559      H4568   1.083       .  S
C4560      C4561   1.406       .  A
C4561      C4562   1.397       .  A
C4561      H4569   1.083       .  S
C4562      H4570   1.084       .  S
C4571      C4572   1.406       .  A
C4571      C4576   1.407       .  A
C4572      C4573   1.397       .  A
C4572      H4585   1.083       .  S
C4573      C4574   1.399       .  A
C4573      H4586   1.084       .  S
C4574      C4575   1.402       .  A
C4574      C4577   1.445       .  S
C4575      C4576   1.404       .  A
C4575      H4587   1.083       .  S
C4576      H4588   1.083       .  S
C4577      C4578   1.209       .  T
C4578      C4579   1.445       .  S
C4579      C4580   1.403       .  A
C4579      C4584   1.399       .  A
C4580      C4581   1.404       .  A
C4580      H4589   1.083       .  S
C4581      C4582   1.407       .  A
C4581      H4590   1.083       .  S
C4582      C4583   1.407       .  A
C4583      C4584   1.397       .  A
C4583      H4591   1.083       .  S
C4584      H4592   1.084       .  S
C4593      C4594   1.407       .  A
C4593      C4598   1.407       .  A
C4594      C4595   1.402       .  A
C4594      H4607   1.083       .  S
C4595      C4596   1.402       .  A
C4595      H4608   1.083       .  S
C4596      C4597   1.400       .  A
C4596      C4599   1.443       .  S
C4597      C4598   1.398       .  A
C4597      H4609   1.084       .  S
C4598      H4610   1.083       .  S
C4599      C4600   1.208       .  T
C4600      C4601   1.443       .  S
C4601      C4602   1.402       .  A
C4601      C4606   1.399       .  A
C4602      C4603   1.403       .  A
C4602      H4611   1.084       .  S
C4603      C4604   1.407       .  A
C4603      H4612   1.082       .  S
C4604      C4605   1.406       .  A
C4605      C4606   1.397       .  A
C4605      H4613   1.083       .  S
C4606      H4614   1.083       .  S
C4615      C4616   1.406       .  A
C4615      C4620   1.406       .  A
C4616      C4617   1.397       .  A
C4616      H4629   1.083       .  S
C4617      C4618   1.399       .  A
C4617      H4630   1.083       .  S
C4618      C4619   1.401       .  A
C4618      C4621   1.440       .  S
C4619      C4620   1.401       .  A
C4619      H4631   1.084       .  S
C4620      H4632   1.083       .  S
C4621      C4622   1.206       .  T
C4622      C4623   1.440       .  S
C4623      C4624   1.401       .  A
C4623      C4628   1.399       .  A
C4624      C4625   1.401       .  A
C4624      H4633   1.084       .  S
C4625      C4626   1.406       .  A
C4625      H4634   1.083       .  S
C4626      C4627   1.406       .  A
C4627      C4628   1.396       .  A
C4627      H4635   1.083       .  S
C4628      H4636   1.084       .  S
C4637      C4638   1.407       .  A
C4637      C4642   1.406       .  A
C4638      C4639   1.396       .  A
C4638      H4651   1.083       .  S
C4639      C4640   1.399       .  A
C4639      H4652   1.083       .  S
C4640      C4641   1.402       .  A
C4640      C4643   1.442       .  S
C4641      C4642   1.403       .  A
C4641      H4653   1.083       .  S
C4642      H4654   1.083       .  S
C4643      C4644   1.207       .  T
C4644      C4645   1.441       .  S
C4645      C4646   1.402       .  A
C4645      C4650   1.399       .  A
C4646      C4647   1.402       .  A
C4646      H4655   1.083       .  S
C4647      C4648   1.406       .  A
C4647      H4656   1.083       .  S
C4648      C4649   1.406       .  A
C4649      C4650   1.396       .  A
C4649      H4657   1.083       .  S
C4650      H4658   1.084       .  S
C4659      C4660   1.406       .  A
C4659      C4664   1.407       .  A
C4660      C4661   1.395       .  A
C4660      H4673   1.083       .  S
C4661      C4662   1.398       .  A
C4661      H4674   1.084       .  S
C4662      C4663   1.402       .  A
C4662      C4665   1.442       .  S
C4663      C4664   1.404       .  A
C4663      H4675   1.083       .  S
C4664      H4676   1.082       .  S
C4665      C4666   1.208       .  T
C4666      C4667   1.442       .  S
C4667      C4668   1.401       .  A
C4667      C4672   1.400       .  A
C4668      C4669   1.402       .  A
C4668      H4677   1.083       .  S
C4669      C4670   1.406       .  A
C4669      H4678   1.083       .  S
C4670      C4671   1.406       .  A
C4671      C4672   1.397       .  A
C4671      H4679   1.083       .  S
C4672      H4680   1.084       .  S
C4681      C4682   1.406       .  A
C4681      C4686   1.407       .  A
C4682      C4683   1.398       .  A
C4682      H4695   1.083       .  S
C4683      C4684   1.400       .  A
C4683      H4696   1.084       .  S
C4684      C4685   1.402       .  A
C4684      C4687   1.445       .  S
C4685      C4686   1.403       .  A
C4685      H4697   1.083       .  S
C4686      H4698   1.083       .  S
C4687      C4688   1.209       .  T
C4688      C4689   1.445       .  S
C4689      C4690   1.403       .  A
C4689      C4694   1.399       .  A
C4690      C4691   1.404       .  A
C4690      H4699   1.083       .  S
C4691      C4692   1.407       .  A
C4691      H4700   1.082       .  S
C4692      C4693   1.406       .  A
C4693      C4694   1.397       .  A
C4693      H4701   1.083       .  S
C4694      H4702   1.084       .  S
C4703      C4704   1.406       .  A
C4703      C4708   1.406       .  A
C4704      C4705   1.396       .  A
C4704      H4717   1.083       .  S
C4705      C4706   1.398       .  A
C4705      H4718   1.084       .  S
C4706      C4707   1.401       .  A
C4706      C4709   1.440       .  S
C4707      C4708   1.402       .  A
C4707      H4719   1.084       .  S
C4708      H4720   1.083       .  S
C4709      C4710   1.206       .  T
C4710      C4711   1.441       .  S
C4711      C4712   1.401       .  A
C4711      C4716   1.399       .  A
C4712      C4713   1.401       .  A
C4712      H4721   1.083       .  S
C4713      C4714   1.406       .  A
C4713      H4722   1.083       .  S
C4714      C4715   1.406       .  A
C4715      C4716   1.397       .  A
C4715      H4723   1.083       .  S
C4716      H4724   1.084       .  S
C4725      C4726   1.406       .  A
C4725      C4730   1.407       .  A
C4726      C4727   1.399       .  A
C4726      H4739   1.083       .  S
C4727      C4728   1.400       .  A
C4727      H4740   1.084       .  S
C4728      C4729   1.402       .  A
C4728      C4731   1.445       .  S
C4729      C4730   1.403       .  A
C4729      H4741   1.083       .  S
C4730      H4742   1.083       .  S
C4731      C4732   1.209       .  T
C4732      C4733   1.445       .  S
C4733      C4734   1.402       .  A
C4733      C4738   1.399       .  A
C4734      C4735   1.404       .  A
C4734      H4743   1.084       .  S
C4735      C4736   1.407       .  A
C4735      H4744   1.083       .  S
C4736      C4737   1.407       .  A
C4737      C4738   1.398       .  A
C4737      H4745   1.083       .  S
C4738      H4746   1.084       .  S
C4747      C4748   1.406       .  A
C4747      C4752   1.407       .  A
C4748      C4749   1.396       .  A
C4748      H4761   1.083       .  S
C4749      C4750   1.398       .  A
C4749      H4762   1.084       .  S
C4750      C4751   1.403       .  A
C4750      C4753   1.445       .  S
C4751      C4752   1.405       .  A
C4751      H4763   1.083       .  S
C4752      H4764   1.082       .  S
C4753      C4754   1.209       .  T
C4754      C4755   1.445       .  S
C4755      C4756   1.401       .  A
C4755      C4760   1.401       .  A
C4756      C4757   1.402       .  A
C4756      H4765   1.084       .  S
C4757      C4758   1.407       .  A
C4757      H4766   1.083       .  S
C4758      C4759   1.407       .  A
C4759      C4760   1.399       .  A
C4759      H4767   1.083       .  S
C4760      H4768   1.084       .  S
C4769      C4770   1.406       .  A
C4769      C4774   1.406       .  A
C4770      C4771   1.401       .  A
C4770      H4783   1.083       .  S
C4771      C4772   1.401       .  A
C4771      H4784   1.083       .  S
C4772      C4773   1.400       .  A
C4772      C4775   1.442       .  S
C4773      C4774   1.398       .  A
C4773      H4785   1.084       .  S
C4774      H4786   1.083       .  S
C4775      C4776   1.207       .  T
C4776      C4777   1.442       .  S
C4777      C4778   1.398       .  A
C4777      C4782   1.403       .  A
C4778      C4779   1.395       .  A
C4778      H4787   1.084       .  S
C4779      C4780   1.406       .  A
C4779      H4788   1.083       .  S
C4780      C4781   1.406       .  A
C4781      C4782   1.403       .  A
C4781      H4789   1.082       .  S
C4782      H4790   1.084       .  S
C4791      C4792   1.408       .  A
C4791      C4796   1.407       .  A
C4792      C4793   1.405       .  A
C4792      H4805   1.083       .  S
C4793      C4794   1.403       .  A
C4793      H4806   1.083       .  S
C4794      C4795   1.400       .  A
C4794      C4797   1.448       .  S
C4795      C4796   1.399       .  A
C4795      H4807   1.084       .  S
C4796      H4808   1.083       .  S
C4797      C4798   1.211       .  T
C4798      C4799   1.447       .  S
C4799      C4800   1.403       .  A
C4799      C4804   1.399       .  A
C4800      C4801   1.405       .  A
C4800      H4809   1.083       .  S
C4801      C4802   1.407       .  A
C4801      H4810   1.083       .  S
C4802      C4803   1.406       .  A
C4803      C4804   1.397       .  A
C4803      H4811   1.083       .  S
C4804      H4812   1.084       .  S
C4813      C4814   1.407       .  A
C4813      C4818   1.407       .  A
C4814      C4815   1.403       .  A
C4814      H4827   1.083       .  S
C4815      C4816   1.402       .  A
C4815      H4828   1.084       .  S
C4816      C4817   1.401       .  A
C4816      C4819   1.447       .  S
C4817      C4818   1.400       .  A
C4817      H4829   1.083       .  S
C4818      H4830   1.083       .  S
C4819      C4820   1.210       .  T
C4820      C4821   1.447       .  S
C4821      C4822   1.403       .  A
C4821      C4826   1.400       .  A
C4822      C4823   1.404       .  A
C4822      H4831   1.084       .  S
C4823      C4824   1.407       .  A
C4823      H4832   1.082       .  S
C4824      C4825   1.406       .  A
C4825      C4826   1.398       .  A
C4825      H4833   1.083       .  S
C4826      H4834   1.084       .  S
C4835      C4836   1.406       .  A
C4835      C4840   1.406       .  A
C4836      C4837   1.397       .  A
C4836      H4849   1.083       .  S
C4837      C4838   1.400       .  A
C4837      H4850   1.084       .  S
C4838      C4839   1.401       .  A
C4838      C4841   1.442       .  S
C4839      C4840   1.402       .  A
C4839      H4851   1.083       .  S
C4840      H4852   1.083       .  S
C4841      C4842   1.208       .  T
C4842      C4843   1.442       .  S
C4843      C4844   1.402       .  A
C4843      C4848   1.398       .  A
C4844      C4845   1.404       .  A
C4844      H4853   1.083       .  S
C4845      C4846   1.407       .  A
C4845      H4854   1.083       .  S
C4846      C4847   1.406       .  A
C4847      C4848   1.396       .  A
C4847      H4855   1.083       .  S
C4848      H4856   1.084       .  S
C4857      C4858   1.407       .  A
C4857      C4862   1.406       .  A
C4858      C4859   1.403       .  A
C4858      H4871   1.082       .  S
C4859      C4860   1.402       .  A
C4859      H4872   1.084       .  S
C4860      C4861   1.399       .  A
C4860      C4863   1.441       .  S
C4861      C4862   1.396       .  A
C4861      H4873   1.084       .  S
C4862      H4874   1.083       .  S
C4863      C4864   1.207       .  T
C4864      C4865   1.441       .  S
C4865      C4866   1.401       .  A
C4865      C4870   1.399       .  A
C4866      C4867   1.402       .  A
C4866      H4875   1.084       .  S
C4867      C4868   1.406       .  A
C4867      H4876   1.083       .  S
C4868      C4869   1.406       .  A
C4869      C4870   1.396       .  A
C4869      H4877   1.083       .  S
C4870      H4878   1.084       .  S
C4879      C4880   1.407       .  A
C4879      C4884   1.406       .  A
C4880      C4881   1.405       .  A
C4880      H4893   1.083       .  S
C4881      C4882   1.403       .  A
C4881      H4894   1.083       .  S
C4882      C4883   1.399       .  A
C4882      C4885   1.447       .  S
C4883      C4884   1.397       .  A
C4883      H4895   1.084       .  S
C4884      H4896   1.083       .  S
C4885      C4886   1.210       .  T
C4886      C4887   1.447       .  S
C4887      C4888   1.402       .  A
C4887      C4892   1.400       .  A
C4888      C4889   1.404       .  A
C4888      H4897   1.083       .  S
C4889      C4890   1.408       .  A
C4889      H4898   1.083       .  S
C4890      C4891   1.407       .  A
C4891      C4892   1.399       .  A
C4891      H4899   1.083       .  S
C4892      H4900   1.084       .  S
C4901      C4902   1.407       .  A
C4901      C4906   1.406       .  A
C4902      C4903   1.404       .  A
C4902      H4915   1.083       .  S
C4903      C4904   1.402       .  A
C4903      H4916   1.083       .  S
C4904      C4905   1.399       .  A
C4904      C4907   1.444       .  S
C4905      C4906   1.396       .  A
C4905      H4917   1.084       .  S
C4906      H4918   1.083       .  S
C4907      C4908   1.208       .  T
C4908      C4909   1.444       .  S
C4909      C4910   1.399       .  A
C4909      C4914   1.402       .  A
C4910      C4911   1.397       .  A
C4910      H4919   1.083       .  S
C4911      C4912   1.407       .  A
C4911      H4920   1.083       .  S
C4912      C4913   1.406       .  A
C4913      C4914   1.403       .  A
C4913      H4921   1.083       .  S
C4914      H4922   1.084       .  S
C4923      C4924   1.406       .  A
C4923      C4928   1.406       .  A
C4924      C4925   1.396       .  A
C4924      H4937   1.083       .  S
C4925      C4926   1.399       .  A
C4925      H4938   1.084       .  S
C4926      C4927   1.401       .  A
C4926      C4929   1.440       .  S
C4927      C4928   1.401       .  A
C4927      H4939   1.084       .  S
C4928      H4940   1.083       .  S
C4929      C4930   1.206       .  T
C4930      C4931   1.441       .  S
C4931      C4932   1.398       .  A
C4931      C4936   1.402       .  A
C4932      C4933   1.396       .  A
C4932      H4941   1.083       .  S
C4933      C4934   1.407       .  A
C4933      H4942   1.083       .  S
C4934      C4935   1.406       .  A
C4935      C4936   1.403       .  A
C4935      H4943   1.083       .  S
C4936      H4944   1.084       .  S
C4945      C4946   1.406       .  A
C4945      C4950   1.407       .  A
C4946      C4947   1.403       .  A
C4946      H4959   1.083       .  S
C4947      C4948   1.402       .  A
C4947      H4960   1.084       .  S
C4948      C4949   1.399       .  A
C4948      C4951   1.442       .  S
C4949      C4950   1.397       .  A
C4949      H4961   1.083       .  S
C4950      H4962   1.083       .  S
C4951      C4952   1.208       .  T
C4952      C4953   1.442       .  S
C4953      C4954   1.399       .  A
C4953      C4958   1.402       .  A
C4954      C4955   1.397       .  A
C4954      H4963   1.084       .  S
C4955      C4956   1.406       .  A
C4955      H4964   1.083       .  S
C4956      C4957   1.406       .  A
C4957      C4958   1.402       .  A
C4957      H4965   1.083       .  S
C4958      H4966   1.083       .  S
C4967      C4968   1.407       .  A
C4967      C4972   1.407       .  A
C4968      C4969   1.398       .  A
C4968      H4981   1.083       .  S
C4969      C4970   1.400       .  A
C4969      H4982   1.084       .  S
C4970      C4971   1.402       .  A
C4970      C4973   1.444       .  S
C4971      C4972   1.403       .  A
C4971      H4983   1.083       .  S
C4972      H4984   1.083       .  S
C4973      C4974   1.209       .  T
C4974      C4975   1.444       .  S
C4975      C4976   1.402       .  A
C4975      C4980   1.399       .  A
C4976      C4977   1.404       .  A
C4976      H4985   1.084       .  S
C4977      C4978   1.407       .  A
C4977      H4986   1.083       .  S
C4978      C4979   1.406       .  A
C4979      C4980   1.397       .  A
C4979      H4987   1.083       .  S
C4980      H4988   1.084       .  S
C4989      C4990   1.406       .  A
C4989      C4994   1.407       .  A
C4990      C4991   1.395       .  A
C4990      H5003   1.083       .  S
C4991      C4992   1.398       .  A
C4991      H5004   1.084       .  S
C4992      C4993   1.402       .  A
C4992      C4995   1.442       .  S
C4993      C4994   1.404       .  A
C4993      H5005   1.083       .  S
C4994      H5006   1.083       .  S
C4995      C4996   1.208       .  T
C4996      C4997   1.442       .  S
C4997      C4998   1.400       .  A
C4997      C5002   1.401       .  A
C4998      C4999   1.397       .  A
C4998      H5007   1.084       .  S
C4999      C5000   1.406       .  A
C4999      H5008   1.083       .  S
C5000      C5001   1.407       .  A
C5001      C5002   1.402       .  A
C5001      H5009   1.083       .  S
C5002      H5010   1.083       .  S
C5011      C5012   1.406       .  A
C5011      C5016   1.406       .  A
C5012      C5013   1.396       .  A
C5012      H5025   1.083       .  S
C5013      C5014   1.398       .  A
C5013      H5026   1.084       .  S
C5014      C5015   1.402       .  A
C5014      C5017   1.440       .  S
C5015      C5016   1.402       .  A
C5015      H5027   1.083       .  S
C5016      H5028   1.083       .  S
C5017      C5018   1.206       .  T
C5018      C5019   1.440       .  S
C5019      C5020   1.400       .  A
C5019      C5024   1.400       .  A
C5020      C5021   1.398       .  A
C5020      H5029   1.083       .  S
C5021      C5022   1.407       .  A
C5021      H5030   1.083       .  S
C5022      C5023   1.405       .  A
C5023      C5024   1.400       .  A
C5023      H5031   1.083       .  S
C5024      H5032   1.084       .  S
C5033      C5034   1.406       .  A
C5033      C5038   1.407       .  A
C5034      C5035   1.398       .  A
C5034      H5047   1.083       .  S
C5035      C5036   1.400       .  A
C5035      H5048   1.084       .  S
C5036      C5037   1.402       .  A
C5036      C5039   1.445       .  S
C5037      C5038   1.403       .  A
C5037      H5049   1.083       .  S
C5038      H5050   1.083       .  S
C5039      C5040   1.209       .  T
C5040      C5041   1.445       .  S
C5041      C5042   1.403       .  A
C5041      C5046   1.399       .  A
C5042      C5043   1.405       .  A
C5042      H5051   1.083       .  S
C5043      C5044   1.407       .  A
C5043      H5052   1.083       .  S
C5044      C5045   1.406       .  A
C5045      C5046   1.396       .  A
C5045      H5053   1.083       .  S
C5046      H5054   1.084       .  S
C5055      C5056   1.407       .  A
C5055      C5060   1.407       .  A
C5056      C5057   1.401       .  A
C5056      H5069   1.083       .  S
C5057      C5058   1.401       .  A
C5057      H5070   1.083       .  S
C5058      C5059   1.400       .  A
C5058      C5061   1.443       .  S
C5059      C5060   1.399       .  A
C5059      H5071   1.083       .  S
C5060      H5072   1.083       .  S
C5061      C5062   1.208       .  T
C5062      C5063   1.443       .  S
C5063      C5064   1.399       .  A
C5063      C5068   1.402       .  A
C5064      C5065   1.396       .  A
C5064      H5073   1.084       .  S
C5065      C5066   1.406       .  A
C5065      H5074   1.083       .  S
C5066      C5067   1.406       .  A
C5067      C5068   1.403       .  A
C5067      H5075   1.083       .  S
C5068      H5076   1.084       .  S
C5077      C5078   1.406       .  A
C5077      C5082   1.407       .  A
C5078      C5079   1.402       .  A
C5078      H5091   1.083       .  S
C5079      C5080   1.402       .  A
C5079      H5092   1.084       .  S
C5080      C5081   1.400       .  A
C5080      C5083   1.445       .  S
C5081      C5082   1.399       .  A
C5081      H5093   1.084       .  S
C5082      H5094   1.083       .  S
C5083      C5084   1.209       .  T
C5084      C5085   1.445       .  S
C5085      C5086   1.399       .  A
C5085      C5090   1.403       .  A
C5086      C5087   1.398       .  A
C5086      H5095   1.084       .  S
C5087      C5088   1.407       .  A
C5087      H5096   1.083       .  S
C5088      C5089   1.407       .  A
C5089      C5090   1.404       .  A
C5089      H5097   1.083       .  S
C5090      H5098   1.083       .  S
C5099      C5100   1.407       .  A
C5099      C5104   1.406       .  A
C5100      C5101   1.404       .  A
C5100      H5113   1.083       .  S
C5101      C5102   1.402       .  A
C5101      H5114   1.083       .  S
C5102      C5103   1.398       .  A
C5102      C5105   1.442       .  S
C5103      C5104   1.396       .  A
C5103      H5115   1.084       .  S
C5104      H5116   1.083       .  S
C5105      C5106   1.208       .  T
C5106      C5107   1.442       .  S
C5107      C5108   1.399       .  A
C5107      C5112   1.402       .  A
C5108      C5109   1.396       .  A
C5108      H5117   1.084       .  S
C5109      C5110   1.406       .  A
C5109      H5118   1.083       .  S
C5110      C5111   1.406       .  A
C5111      C5112   1.403       .  A
C5111      H5119   1.083       .  S
C5112      H5120   1.083       .  S
C5121      C5122   1.407       .  A
C5121      C5126   1.407       .  A
C5122      C5123   1.400       .  A
C5122      H5135   1.083       .  S
C5123      C5124   1.401       .  A
C5123      H5136   1.084       .  S
C5124      C5125   1.402       .  A
C5124      C5127   1.447       .  S
C5125      C5126   1.403       .  A
C5125      H5137   1.083       .  S
C5126      H5138   1.083       .  S
C5127      C5128   1.210       .  T
C5128      C5129   1.447       .  S
C5129      C5130   1.403       .  A
C5129      C5134   1.400       .  A
C5130      C5131   1.404       .  A
C5130      H5139   1.084       .  S
C5131      C5132   1.407       .  A
C5131      H5140   1.083       .  S
C5132      C5133   1.407       .  A
C5133      C5134   1.398       .  A
C5133      H5141   1.083       .  S
C5134      H5142   1.084       .  S
C5143      C5144   1.406       .  A
C5143      C5148   1.408       .  A
C5144      C5145   1.400       .  A
C5144      H5157   1.083       .  S
C5145      C5146   1.401       .  A
C5145      H5158   1.084       .  S
C5146      C5147   1.403       .  A
C5146      C5149   1.450       .  S
C5147      C5148   1.405       .  A
C5147      H5159   1.083       .  S
C5148      H5160   1.083       .  S
C5149      C5150   1.212       .  T
C5150      C5151   1.450       .  S
C5151      C5152   1.401       .  A
C5151      C5156   1.403       .  A
C5152      C5153   1.400       .  A
C5152      H5161   1.084       .  S
C5153      C5154   1.407       .  A
C5153      H5162   1.083       .  S
C5154      C5155   1.408       .  A
C5155      C5156   1.405       .  A
C5155      H5163   1.083       .  S
C5156      H5164   1.083       .  S
C5165      C5166   1.406       .  A
C5165      C5170   1.407       .  A
C5166      C5167   1.403       .  A
C5166      H5179   1.083       .  S
C5167      C5168   1.402       .  A
C5167      H5180   1.083       .  S
C5168      C5169   1.399       .  A
C5168      C5171   1.443       .  S
C5169      C5170   1.397       .  A
C5169      H5181   1.084       .  S
C5170      H5182   1.083       .  S
C5171      C5172   1.208       .  T
C5172      C5173   1.443       .  S
C5173      C5174   1.402       .  A
C5173      C5178   1.399       .  A
C5174      C5175   1.402       .  A
C5174      H5183   1.083       .  S
C5175      C5176   1.406       .  A
C5175      H5184   1.083       .  S
C5176      C5177   1.407       .  A
C5177      C5178   1.397       .  A
C5177      H5185   1.083       .  S
C5178      H5186   1.084       .  S
C5187      C5188   1.407       .  A
C5187      C5192   1.406       .  A
C5188      C5189   1.395       .  A
C5188      H5201   1.083       .  S
C5189      C5190   1.398       .  A
C5189      H5202   1.084       .  S
C5190      C5191   1.403       .  A
C5190      C5193   1.442       .  S
C5191      C5192   1.404       .  A
C5191      H5203   1.083       .  S
C5192      H5204   1.083       .  S
C5193      C5194   1.208       .  T
C5194      C5195   1.442       .  S
C5195      C5196   1.402       .  A
C5195      C5200   1.399       .  A
C5196      C5197   1.402       .  A
C5196      H5205   1.084       .  S
C5197      C5198   1.406       .  A
C5197      H5206   1.083       .  S
C5198      C5199   1.407       .  A
C5199      C5200   1.397       .  A
C5199      H5207   1.083       .  S
C5200      H5208   1.083       .  S
C5209      C5210   1.407       .  A
C5209      C5214   1.406       .  A
C5210      C5211   1.404       .  A
C5210      H5223   1.083       .  S
C5211      C5212   1.403       .  A
C5211      H5224   1.083       .  S
C5212      C5213   1.399       .  A
C5212      C5215   1.445       .  S
C5213      C5214   1.397       .  A
C5213      H5225   1.084       .  S
C5214      H5226   1.083       .  S
C5215      C5216   1.209       .  T
C5216      C5217   1.445       .  S
C5217      C5218   1.401       .  A
C5217      C5222   1.401       .  A
C5218      C5219   1.399       .  A
C5218      H5227   1.083       .  S
C5219      C5220   1.407       .  A
C5219      H5228   1.082       .  S
C5220      C5221   1.406       .  A
C5221      C5222   1.402       .  A
C5221      H5229   1.083       .  S
C5222      H5230   1.084       .  S
C5231      C5232   1.407       .  A
C5231      C5236   1.406       .  A
C5232      C5233   1.404       .  A
C5232      H5245   1.082       .  S
C5233      C5234   1.403       .  A
C5233      H5246   1.083       .  S
C5234      C5235   1.399       .  A
C5234      C5237   1.445       .  S
C5235      C5236   1.397       .  A
C5235      H5247   1.084       .  S
C5236      H5248   1.083       .  S
C5237      C5238   1.210       .  T
C5238      C5239   1.446       .  S
C5239      C5240   1.401       .  A
C5239      C5244   1.401       .  A
C5240      C5241   1.401       .  A
C5240      H5249   1.083       .  S
C5241      C5242   1.407       .  A
C5241      H5250   1.083       .  S
C5242      C5243   1.407       .  A
C5243      C5244   1.402       .  A
C5243      H5251   1.083       .  S
C5244      H5252   1.084       .  S
C5253      C5254   1.406       .  A
C5253      C5258   1.407       .  A
C5254      C5255   1.396       .  A
C5254      H5267   1.083       .  S
C5255      C5256   1.399       .  A
C5255      H5268   1.084       .  S
C5256      C5257   1.403       .  A
C5256      C5259   1.445       .  S
C5257      C5258   1.405       .  A
C5257      H5269   1.083       .  S
C5258      H5270   1.082       .  S
C5259      C5260   1.210       .  T
C5260      C5261   1.446       .  S
C5261      C5262   1.402       .  A
C5261      C5266   1.400       .  A
C5262      C5263   1.403       .  A
C5262      H5271   1.083       .  S
C5263      C5264   1.407       .  A
C5263      H5272   1.083       .  S
C5264      C5265   1.407       .  A
C5265      C5266   1.399       .  A
C5265      H5273   1.083       .  S
C5266      H5274   1.084       .  S
C5275      C5276   1.407       .  A
C5275      C5280   1.407       .  A
C5276      C5277   1.404       .  A
C5276      H5289   1.083       .  S
C5277      C5278   1.402       .  A
C5277      H5290   1.083       .  S
C5278      C5279   1.399       .  A
C5278      C5281   1.444       .  S
C5279      C5280   1.397       .  A
C5279      H5291   1.084       .  S
C5280      H5292   1.083       .  S
C5281      C5282   1.209       .  T
C5282      C5283   1.444       .  S
C5283      C5284   1.399       .  A
C5283      C5288   1.402       .  A
C5284      C5285   1.397       .  A
C5284      H5293   1.084       .  S
C5285      C5286   1.406       .  A
C5285      H5294   1.083       .  S
C5286      C5287   1.407       .  A
C5287      C5288   1.403       .  A
C5287      H5295   1.083       .  S
C5288      H5296   1.083       .  S
C5297      C5298   1.406       .  A
C5297      C5302   1.406       .  A
C5298      C5299   1.402       .  A
C5298      H5311   1.083       .  S
C5299      C5300   1.401       .  A
C5299      H5312   1.083       .  S
C5300      C5301   1.399       .  A
C5300      C5303   1.441       .  S
C5301      C5302   1.396       .  A
C5301      H5313   1.084       .  S
C5302      H5314   1.083       .  S
C5303      C5304   1.207       .  T
C5304      C5305   1.441       .  S
C5305      C5306   1.399       .  A
C5305      C5310   1.401       .  A
C5306      C5307   1.396       .  A
C5306      H5315   1.083       .  S
C5307      C5308   1.407       .  A
C5307      H5316   1.083       .  S
C5308      C5309   1.406       .  A
C5309      C5310   1.402       .  A
C5309      H5317   1.082       .  S
C5310      H5318   1.084       .  S
C5319      C5320   1.407       .  A
C5319      C5324   1.406       .  A
C5320      C5321   1.402       .  A
C5320      H5333   1.083       .  S
C5321      C5322   1.401       .  A
C5321      H5334   1.084       .  S
C5322      C5323   1.399       .  A
C5322      C5325   1.440       .  S
C5323      C5324   1.395       .  A
C5323      H5335   1.083       .  S
C5324      H5336   1.083       .  S
C5325      C5326   1.206       .  T
C5326      C5327   1.440       .  S
C5327      C5328   1.399       .  A
C5327      C5332   1.401       .  A
C5328      C5329   1.395       .  A
C5328      H5337   1.084       .  S
C5329      C5330   1.405       .  A
C5329      H5338   1.083       .  S
C5330      C5331   1.407       .  A
C5331      C5332   1.402       .  A
C5331      H5339   1.083       .  S
C5332      H5340   1.083       .  S
C5341      C5342   1.406       .  A
C5341      C5346   1.406       .  A
C5342      C5343   1.395       .  A
C5342      H5355   1.083       .  S
C5343      C5344   1.398       .  A
C5343      H5356   1.084       .  S
C5344      C5345   1.402       .  A
C5344      C5347   1.441       .  S
C5345      C5346   1.403       .  A
C5345      H5357   1.084       .  S
C5346      H5358   1.083       .  S
C5347      C5348   1.207       .  T
C5348      C5349   1.441       .  S
C5349      C5350   1.401       .  A
C5349      C5354   1.399       .  A
C5350      C5351   1.400       .  A
C5350      H5359   1.083       .  S
C5351      C5352   1.406       .  A
C5351      H5360   1.083       .  S
C5352      C5353   1.406       .  A
C5353      C5354   1.398       .  A
C5353      H5361   1.083       .  S
C5354      H5362   1.084       .  S
C5363      C5364   1.407       .  A
C5363      C5368   1.406       .  A
C5364      C5365   1.396       .  A
C5364      H5377   1.083       .  S
C5365      C5366   1.399       .  A
C5365      H5378   1.084       .  S
C5366      C5367   1.402       .  A
C5366      C5369   1.441       .  S
C5367      C5368   1.403       .  A
C5367      H5379   1.084       .  S
C5368      H5380   1.083       .  S
C5369      C5370   1.207       .  T
C5370      C5371   1.441       .  S
C5371      C5372   1.402       .  A
C5371      C5376   1.399       .  A
C5372      C5373   1.402       .  A
C5372      H5381   1.083       .  S
C5373      C5374   1.406       .  A
C5373      H5382   1.083       .  S
C5374      C5375   1.406       .  A
C5375      C5376   1.396       .  A
C5375      H5383   1.083       .  S
C5376      H5384   1.084       .  S
C5385      C5386   1.406       .  A
C5385      C5390   1.406       .  A
C5386      C5387   1.400       .  A
C5386      H5399   1.083       .  S
C5387      C5388   1.400       .  A
C5387      H5400   1.084       .  S
C5388      C5389   1.400       .  A
C5388      C5391   1.442       .  S
C5389      C5390   1.399       .  A
C5389      H5401   1.084       .  S
C5390      H5402   1.083       .  S
C5391      C5392   1.207       .  T
C5392      C5393   1.442       .  S
C5393      C5394   1.398       .  A
C5393      C5398   1.403       .  A
C5394      C5395   1.395       .  A
C5394      H5403   1.084       .  S
C5395      C5396   1.406       .  A
C5395      H5404   1.083       .  S
C5396      C5397   1.407       .  A
C5397      C5398   1.403       .  A
C5397      H5405   1.083       .  S
C5398      H5406   1.083       .  S
C5407      C5408   1.406       .  A
C5407      C5412   1.408       .  A
C5408      C5409   1.403       .  A
C5408      H5421   1.083       .  S
C5409      C5410   1.402       .  A
C5409      H5422   1.084       .  S
C5410      C5411   1.400       .  A
C5410      C5413   1.446       .  S
C5411      C5412   1.399       .  A
C5411      H5423   1.083       .  S
C5412      H5424   1.083       .  S
C5413      C5414   1.210       .  T
C5414      C5415   1.446       .  S
C5415      C5416   1.399       .  A
C5415      C5420   1.403       .  A
C5416      C5417   1.397       .  A
C5416      H5425   1.084       .  S
C5417      C5418   1.406       .  A
C5417      H5426   1.083       .  S
C5418      C5419   1.407       .  A
C5419      C5420   1.404       .  A
C5419      H5427   1.083       .  S
C5420      H5428   1.083       .  S
C5429      C5430   1.407       .  A
C5429      C5434   1.406       .  A
C5430      C5431   1.395       .  A
C5430      H5443   1.083       .  S
C5431      C5432   1.398       .  A
C5431      H5444   1.084       .  S
C5432      C5433   1.402       .  A
C5432      C5435   1.440       .  S
C5433      C5434   1.403       .  A
C5433      H5445   1.083       .  S
C5434      H5446   1.083       .  S
C5435      C5436   1.206       .  T
C5436      C5437   1.440       .  S
C5437      C5438   1.400       .  A
C5437      C5442   1.400       .  A
C5438      C5439   1.397       .  A
C5438      H5447   1.083       .  S
C5439      C5440   1.406       .  A
C5439      H5448   1.083       .  S
C5440      C5441   1.405       .  A
C5441      C5442   1.400       .  A
C5441      H5449   1.083       .  S
C5442      H5450   1.084       .  S
C5451      C5452   1.406       .  A
C5451      C5456   1.406       .  A
C5452      C5453   1.397       .  A
C5452      H5465   1.083       .  S
C5453      C5454   1.399       .  A
C5453      H5466   1.084       .  S
C5454      C5455   1.401       .  A
C5454      C5457   1.442       .  S
C5455      C5456   1.402       .  A
C5455      H5467   1.083       .  S
C5456      H5468   1.083       .  S
C5457      C5458   1.208       .  T
C5458      C5459   1.442       .  S
C5459      C5460   1.403       .  A
C5459      C5464   1.398       .  A
C5460      C5461   1.404       .  A
C5460      H5469   1.083       .  S
C5461      C5462   1.407       .  A
C5461      H5470   1.082       .  S
C5462      C5463   1.406       .  A
C5463      C5464   1.394       .  A
C5463      H5471   1.083       .  S
C5464      H5472   1.084       .  S
