geometry optimzed in LAMMPS
_audit_creation_date              2020-11-30 
_audit_creation_method            'lammps2cif' 
_symmetry_space_group_name_H-M    'P1' 
_symmetry_Int_Tables_number       1 
_symmetry_cell_setting            triclinic 
loop_ 
_symmetry_equiv_pos_as_xyz 
  x,y,z 
_cell_length_a                    69.77713787 
_cell_length_b                    69.78254959905013 
_cell_length_c                    103.88853448609551 
_cell_angle_alpha                 90.02309478041107 
_cell_angle_beta                  89.99610665025583 
_cell_angle_gamma                 120.84901900211179 
loop_ 
_atom_site_label 
_atom_site_type_symbol 
_atom_site_fract_x 
_atom_site_fract_y 
_atom_site_fract_z 
_atom_site_charge 
N1          N  0.31088530  0.30480577  0.64939985    -0.27400
N2          N  0.32441073  0.32110438  0.64154677    -0.35200
C3          C  0.31271493  0.32840888  0.63508988     0.01000
C4          C  0.29081759  0.31644692  0.63918855     0.07000
C5          C  0.29016776  0.30154099  0.64824123    -0.06100
H6          H  0.31959586  0.34128038  0.62778884     0.07700
H7          H  0.27560001  0.28876815  0.65325627     0.08900
Cu8        Cu  0.35797821  0.33241438  0.63932047     0.44200
Cu9        Cu  0.32132898  0.28705956  0.66064859     0.42000
Cu10       Cu  0.37968790  0.30294996  0.65613274     0.43900
N11         N  0.39042344  0.33958517  0.63723156    -0.34700
N12         N  0.39833737  0.32833810  0.64313631    -0.29000
C13         C  0.41960170  0.33646332  0.63944084    -0.05100
C14         C  0.42530609  0.35359459  0.63070939     0.07100
C15         C  0.40642706  0.35527099  0.62970255     0.00900
H16         H  0.43010135  0.33028017  0.64282039     0.08600
H17         H  0.40445095  0.36720021  0.62410515     0.07700
N18         N  0.35825504  0.27931266  0.66928793    -0.36200
N19         N  0.33707457  0.27323142  0.67088683    -0.28400
C20         C  0.32823166  0.25754155  0.68016003    -0.03600
C21         C  0.34474123  0.25383980  0.68478391     0.05000
C22         C  0.36345265  0.26784519  0.67753511     0.03100
H23         H  0.31093249  0.24919308  0.68309108     0.08200
H24         H  0.37979434  0.26971009  0.67825170     0.07000
N25         N  0.93455703  0.28077840  0.67405174    -0.27400
N26         N  0.92076529  0.28848516  0.67333970    -0.35200
C27         C  0.90432427  0.27773737  0.68198134     0.01000
C28         C  0.90797094  0.26269147  0.68858347     0.07000
C29         C  0.92713534  0.26485730  0.68318634    -0.06100
H30         H  0.89038925  0.28030554  0.68309934     0.07700
H31         H  0.93510728  0.25555280  0.68571505     0.08900
Cu32       Cu  0.92357954  0.31252222  0.66047568     0.44200
Cu33       Cu  0.96259756  0.29177707  0.66245313     0.42000
Cu34       Cu  0.96715277  0.32989362  0.63744146     0.43900
N35         N  0.92880454  0.33495227  0.64587227    -0.34700
N36         N  0.94484406  0.34106119  0.63727651    -0.29000
C37         C  0.94405009  0.35527111  0.62888625    -0.05100
C38         C  0.92683848  0.35858325  0.63244316     0.07100
C39         C  0.91731490  0.34515538  0.64317300     0.00900
H40         H  0.95494260  0.36226696  0.62064161     0.08600
H41         H  0.90309035  0.34295699  0.64860172     0.07700
N42         N  0.98937683  0.31886181  0.63966580    -0.36200
N43         N  0.98826544  0.30540586  0.64897044    -0.28400
C44         C  0.00558493  0.30209165  0.64776064    -0.03600
C45         C  0.01807200  0.31403600  0.63716798     0.05000
C46         C  0.00719712  0.32428457  0.63223707     0.03100
H47         H  0.00856609  0.29141304  0.65394238     0.08200
H48         H  0.01195837  0.33501181  0.62387574     0.07000
N49         N  0.19188988  0.33053145  0.61269757    -0.27400
N50         N  0.20661018  0.34176920  0.60355058    -0.35200
C51         C  0.22509664  0.34084829  0.60560413     0.01000
C52         C  0.22193376  0.32812229  0.61646515     0.07000
C53         C  0.20077730  0.32212334  0.62085732    -0.06100
H54         H  0.23990495  0.34917677  0.59967303     0.07700
H55         H  0.19239752  0.31219411  0.62926856     0.08900
Cu56       Cu  0.20150677  0.35773316  0.58835495     0.44200
Cu57       Cu  0.16048342  0.32736235  0.61322825     0.42000
Cu58       Cu  0.14919065  0.35438716  0.58611913     0.43900
N59         N  0.19359338  0.37185207  0.57334171    -0.34700
N60         N  0.17410294  0.37058267  0.57246852    -0.29000
C61         C  0.17367338  0.38081782  0.56160242    -0.05100
C62         C  0.19381866  0.38867605  0.55524426     0.07100
C63         C  0.20613883  0.38292303  0.56307015     0.00900
H64         H  0.15976496  0.38251128  0.55861563     0.08600
H65         H  0.22284214  0.38619824  0.56131879     0.07700
N66         N  0.12703011  0.33726940  0.60095190    -0.36200
N67         N  0.13092104  0.32760969  0.61074750    -0.28400
C68         C  0.11323033  0.31902687  0.61874608    -0.03600
C69         C  0.09737940  0.32324850  0.61366536     0.05000
C70         C  0.10686977  0.33504879  0.60246020     0.03100
H71         H  0.11215336  0.31068334  0.62772576     0.08200
H72         H  0.10010443  0.34241802  0.59612584     0.07000
N73         N  0.98179562  0.67406379  0.64808147    -0.27400
N74         N  0.98314018  0.66186372  0.63879335    -0.35200
C75         C  0.99979217  0.67524000  0.63077591     0.01000
C76         C  0.00927053  0.69702269  0.63508582     0.07000
C77         C  0.99763535  0.69560438  0.64620622    -0.06100
H78         H  0.00488778  0.66941135  0.62255194     0.07700
H79         H  0.00035915  0.70923468  0.65241085     0.08900
Cu80       Cu  0.96256118  0.62753617  0.63742964     0.44200
Cu81       Cu  0.95802842  0.66045879  0.66260406     0.42000
Cu82       Cu  0.92168717  0.59956313  0.66246945     0.43900
N83         N  0.94162336  0.59320443  0.63828533    -0.34700
N84         N  0.92690723  0.58272133  0.64754924    -0.29000
C85         C  0.91631981  0.56058195  0.64528103    -0.05100
C86         C  0.92498826  0.55695357  0.63412510     0.07100
C87         C  0.94074427  0.57812599  0.62988720     0.00900
H88         H  0.90321271  0.54804430  0.65128222     0.08600
H89         H  0.95051366  0.58241963  0.62115197     0.07700
N90         N  0.91848633  0.62083696  0.67525494    -0.36200
N91         N  0.93152184  0.64282055  0.67521505    -0.28400
C92         C  0.92387555  0.65155713  0.68394041    -0.03600
C93         C  0.90523250  0.63429361  0.68991875     0.05000
C94         C  0.90228401  0.61507809  0.68406448     0.03100
H95         H  0.93072210  0.66926372  0.68527751     0.08200
H96         H  0.88891058  0.59813528  0.68581494     0.07000
N97         N  0.30887575  0.99542359  0.64983282    -0.27400
N98         N  0.32229805  0.99095165  0.64320992    -0.35200
C99         C  0.30992100  0.97200106  0.63652815     0.01000
C100        C  0.28759186  0.96388595  0.63918179     0.07000
C101        C  0.28757277  0.97935354  0.64754505    -0.06100
H102        H  0.31671759  0.96513831  0.62984054     0.07700
H103        H  0.27313370  0.97907925  0.65156948     0.08900
Cu104      Cu  0.35678127  0.01143744  0.64268204     0.44200
Cu105      Cu  0.32025987  0.02375973  0.66115828     0.42000
Cu106      Cu  0.37916319  0.06551444  0.65725558     0.43900
N107        N  0.39010788  0.03635598  0.64132463    -0.34700
N108        N  0.39810910  0.05662149  0.64604947    -0.29000
C109        C  0.41955497  0.06948413  0.64239044    -0.05100
C110        C  0.42562069  0.05659205  0.63520932     0.07100
C111        C  0.40631711  0.03567667  0.63472720     0.00900
H112        H  0.42949548  0.08716053  0.64433896     0.08600
H113        H  0.40394614  0.02110405  0.62962442     0.07700
N114        N  0.35778037  0.06877598  0.66982813    -0.36200
N115        N  0.33640612  0.05361043  0.67132269    -0.28400
C116        C  0.32776429  0.06050198  0.68056987    -0.03600
C117        C  0.34458561  0.08080335  0.68526557     0.05000
C118        C  0.36329419  0.08563011  0.67811459     0.03100
H119        H  0.31064165  0.05115640  0.68385846     0.08200
H120        H  0.37978674  0.10028605  0.67890774     0.07000
N121        N  0.18279782  0.85934520  0.60723620    -0.27400
N122        N  0.19819322  0.86151388  0.59895235    -0.35200
C123        C  0.21771362  0.87990631  0.60191173     0.01000
C124        C  0.21447151  0.88999761  0.61245338     0.07000
C125        C  0.19215685  0.87649797  0.61561949    -0.06100
H126        H  0.23334224  0.88509660  0.59704713     0.07700
H127        H  0.18371599  0.87821449  0.62388249     0.08900
Cu128      Cu  0.19296219  0.83883295  0.58451116     0.44200
Cu129      Cu  0.15072076  0.83149701  0.60794961     0.42000
Cu130      Cu  0.13947866  0.78868342  0.58418445     0.43900
N131        N  0.18347648  0.81436835  0.57056817    -0.34700
N132        N  0.16361699  0.79599417  0.57031141    -0.29000
C133        C  0.16220181  0.78397103  0.55984458    -0.05100
C134        C  0.18231540  0.79519110  0.55325806     0.07100
C135        C  0.19529462  0.81449755  0.56032382     0.00900
H136        H  0.14733224  0.76860650  0.55706605     0.08600
H137        H  0.21207931  0.82779437  0.55812245     0.07700
N138        N  0.11809874  0.78462086  0.59916972    -0.36200
N139        N  0.12183087  0.80011665  0.60777845    -0.28400
C140        C  0.10475312  0.79166561  0.61622838    -0.03600
C141        C  0.08966573  0.76969837  0.61282513     0.05000
C142        C  0.09868420  0.76598839  0.60190600     0.03100
H143        H  0.10343880  0.80094931  0.62416536     0.08200
H144        H  0.09179930  0.75064797  0.59644490     0.07000
N145        N  0.56165403  0.12579157  0.56765680    -0.36700
N146        N  0.57852084  0.10326871  0.58313013    -0.57200
N147        N  0.53965436  0.08576574  0.60001464    -0.36700
N148        N  0.52350704  0.10975940  0.58506770    -0.57200
C149        C  0.58285662  0.13543782  0.56314906     0.26900
C150        C  0.55364491  0.13904892  0.56412555     0.26900
C151        C  0.55322092  0.08142800  0.60717574     0.26900
C152        C  0.52309561  0.08356096  0.60782726     0.26900
C153        C  0.59312071  0.10968647  0.57324015     0.35500
C154        C  0.58192467  0.08927227  0.59041629     0.35500
C155        C  0.51765810  0.12012977  0.57626465     0.35500
C156        C  0.50577010  0.09856653  0.59301022     0.35500
C157        C  0.58821247  0.15484048  0.55657531    -0.22000
C158        C  0.56972761  0.15697090  0.55705050    -0.22000
C159        C  0.54498146  0.07607850  0.61962486    -0.22000
C160        C  0.52581654  0.07708911  0.61998525    -0.22000
C161        C  0.60560383  0.09942275  0.57412125    -0.23000
C162        C  0.59854818  0.08652391  0.58502901    -0.23000
C163        C  0.49629463  0.11582969  0.57876630    -0.23000
C164        C  0.48877199  0.10219496  0.58934267    -0.23000
C165        C  0.59723094  0.12679688  0.56443437    -0.18400
C166        C  0.53191094  0.13493376  0.56665307    -0.18400
C167        C  0.50528296  0.08662073  0.60415195    -0.18400
C168        C  0.57226210  0.08119567  0.60264304    -0.18400
H169        H  0.60377949  0.16626439  0.55182531     0.14600
H170        H  0.56843367  0.17033273  0.55268589     0.14600
H171        H  0.55186669  0.07159522  0.62760923     0.14600
H172        H  0.51525819  0.07359498  0.62832883     0.14600
H173        H  0.61893198  0.10161844  0.56781419     0.12800
H174        H  0.60534117  0.07676807  0.58878751     0.12800
H175        H  0.48721013  0.12223182  0.57368169     0.12800
H176        H  0.47278714  0.09613597  0.59397329     0.12800
H177        H  0.55247332  0.11012197  0.57172363     0.26100
H178        H  0.54041717  0.08797813  0.59013203     0.26100
N179        N  0.48860557  0.27674568  0.52409432    -0.27400
N180        N  0.49002203  0.26720680  0.53473014    -0.35200
C181        C  0.49867763  0.28242782  0.54418305     0.01000
C182        C  0.50330196  0.30276541  0.53927198     0.07000
C183        C  0.49632577  0.29848574  0.52653444    -0.06100
H184        H  0.50185162  0.27896662  0.55384281     0.07700
H185        H  0.49759449  0.31045662  0.51946044     0.08900
Cu186      Cu  0.48406106  0.23516068  0.53538919     0.44200
Cu187      Cu  0.47781092  0.25911684  0.50686709     0.42000
Cu188      Cu  0.48052873  0.20746409  0.50559884     0.43900
N189        N  0.48943017  0.20891983  0.53392076    -0.34700
N190        N  0.48968845  0.19942687  0.52297656    -0.29000
C191        C  0.49677206  0.18506818  0.52538348    -0.05100
C192        C  0.50145782  0.18593342  0.53845404     0.07100
C193        C  0.49611443  0.20090457  0.54352687     0.00900
H194        H  0.49884179  0.17513171  0.51813781     0.08600
H195        H  0.49715332  0.20590035  0.55347028     0.07700
N196        N  0.46748802  0.21814577  0.49108203    -0.36200
N197        N  0.46612249  0.23637402  0.49169750    -0.28400
C198        C  0.45539281  0.23733728  0.48118491    -0.03600
C199        C  0.44961793  0.21884318  0.47360795     0.05000
C200        C  0.45779495  0.20719805  0.48009311     0.03100
H201        H  0.45206466  0.25058015  0.47921084     0.08200
H202        H  0.45626341  0.19157324  0.47720364     0.07000
N203        N  0.57177972  0.42187116  0.57284297    -0.36700
N204        N  0.58867567  0.46096840  0.58940775    -0.57200
N205        N  0.54832843  0.43819688  0.60485569    -0.36700
N206        N  0.53066016  0.39987690  0.58740735    -0.57200
C207        C  0.59017398  0.43644478  0.56615627     0.26900
C208        C  0.55942059  0.40401862  0.56515211     0.26900
C209        C  0.55730358  0.45925677  0.60942885     0.26900
C210        C  0.52662211  0.42676910  0.60843194     0.26900
C211        C  0.60739828  0.46694129  0.58257694     0.35500
C212        C  0.59477693  0.47562808  0.59925079     0.35500
C213        C  0.52729155  0.38253416  0.57995590     0.35500
C214        C  0.51494175  0.39124479  0.59670322     0.35500
C215        C  0.58964684  0.42749925  0.55411745    -0.22000
C216        C  0.57019467  0.40712350  0.55346833    -0.22000
C217        C  0.54120723  0.46110164  0.61621147    -0.22000
C218        C  0.52183735  0.44058592  0.61558752    -0.22000
C219        C  0.62543691  0.48563220  0.58804459    -0.23000
C220        C  0.61746618  0.49104659  0.59864454    -0.23000
C221        C  0.50926113  0.36283505  0.58447562    -0.23000
C222        C  0.50144184  0.36834842  0.59509872    -0.23000
C223        C  0.60818032  0.45674445  0.57097925    -0.18400
C224        C  0.53946316  0.38436854  0.56870578    -0.18400
C225        C  0.51132558  0.40392905  0.60592812    -0.18400
C226        C  0.57982238  0.47659408  0.60803776    -0.18400
H227        H  0.60211600  0.43464306  0.54660762     0.14600
H228        H  0.56481922  0.39570773  0.54539597     0.14600
H229        H  0.54319955  0.47571114  0.62110509     0.14600
H230        H  0.50603744  0.43631552  0.61993594     0.14600
H231        H  0.64250691  0.49471444  0.58465198     0.12800
H232        H  0.62717704  0.50506077  0.60500089     0.12800
H233        H  0.50232219  0.34625591  0.58046604     0.12800
H234        H  0.48723625  0.35684753  0.60087829     0.12800
H235        H  0.56921321  0.42286472  0.58258713     0.26100
H236        H  0.55701772  0.43135622  0.60068947     0.26100
N237        N  0.71248203  0.50235091  0.52445290    -0.27400
N238        N  0.71363308  0.48571902  0.52967971    -0.35200
C239        C  0.69799404  0.47606603  0.53881079     0.01000
C240        C  0.68670867  0.48748454  0.53976405     0.07000
C241        C  0.69602994  0.50380981  0.53029336    -0.06100
H242        H  0.69533884  0.46185865  0.54440562     0.07700
H243        H  0.69159247  0.51618067  0.52803966     0.08900
Cu244      Cu  0.73886873  0.47925335  0.52661636     0.44200
Cu245      Cu  0.73426978  0.52243761  0.51006852     0.42000
Cu246      Cu  0.78527726  0.51970566  0.50891617     0.43900
N247        N  0.77015939  0.48351755  0.52842675    -0.34700
N248        N  0.78776043  0.49918826  0.52224301    -0.29000
C249        C  0.80611516  0.49957401  0.52656400    -0.05100
C250        C  0.79968324  0.48358530  0.53610712     0.07100
C251        C  0.77672483  0.47351170  0.53688737     0.00900
H252        H  0.82292455  0.51106579  0.52328348     0.08600
H253        H  0.76558260  0.46014704  0.54326102     0.07700
N254        N  0.77715946  0.53647928  0.49569603    -0.36200
N255        N  0.75885791  0.53768074  0.49603453    -0.28400
C256        C  0.75886109  0.54950161  0.48580267    -0.03600
C257        C  0.77792564  0.55573995  0.47860619     0.05000
C258        C  0.78918426  0.54736583  0.48527392     0.03100
H259        H  0.74607229  0.55350262  0.48390321     0.08200
H260        H  0.80490203  0.54884520  0.48266761     0.07000
N261        N  0.78585453  0.27598366  0.52086733    -0.27400
N262        N  0.77451365  0.26823961  0.53167270    -0.35200
C263        C  0.78403966  0.28392008  0.54082795     0.01000
C264        C  0.80229469  0.30277000  0.53560997     0.07000
C265        C  0.80270766  0.29707679  0.52281233    -0.06100
H266        H  0.77779683  0.28173834  0.55056868     0.07700
H267        H  0.81377544  0.30754940  0.51527636     0.08900
Cu268      Cu  0.74538615  0.23754941  0.53336738     0.44200
Cu269      Cu  0.77780179  0.25662790  0.50434808     0.42000
Cu270      Cu  0.72881557  0.19929666  0.50728454     0.43900
N271        N  0.71554402  0.20727614  0.53320594    -0.34700
N272        N  0.70934551  0.19277353  0.52367653    -0.29000
C273        C  0.68917976  0.17493795  0.52646093    -0.05100
C274        C  0.68244662  0.17833073  0.53840532     0.07100
C275        C  0.69950399  0.19924299  0.54223196     0.00900
H276        H  0.68005264  0.16061910  0.52022722     0.08600
H277        H  0.70002757  0.20837119  0.55076295     0.07700
N278        N  0.75082566  0.21104729  0.49181352    -0.36200
N279        N  0.76796934  0.23168226  0.49061019    -0.28400
C280        C  0.77874090  0.23325207  0.47956883    -0.03600
C281        C  0.76784511  0.21270134  0.47350354     0.05000
C282        C  0.75037553  0.19899157  0.48159492     0.03100
H283        H  0.79396291  0.24801749  0.47648429     0.08200
H284        H  0.73838871  0.18142159  0.48024830     0.07000
N285        N  0.85809451  0.42394794  0.56583992    -0.36700
N286        N  0.87590951  0.40338435  0.58245825    -0.57200
N287        N  0.89334303  0.44121122  0.60005139    -0.36700
N288        N  0.87382068  0.46089964  0.58404745    -0.57200
C289        C  0.84755095  0.40299500  0.56095341     0.26900
C290        C  0.84699926  0.43389835  0.56158283     0.26900
C291        C  0.89620543  0.42668813  0.60723532     0.26900
C292        C  0.89526271  0.45746133  0.60802930     0.26900
C293        C  0.86916750  0.38891429  0.57248257     0.35500
C294        C  0.88825817  0.39832897  0.59018759     0.35500
C295        C  0.86687640  0.46894091  0.57444003     0.35500
C296        C  0.88528594  0.47797687  0.59235450     0.35500
C297        C  0.83004812  0.39992221  0.55315164    -0.22000
C298        C  0.82962514  0.41935247  0.55360736    -0.22000
C299        C  0.90035510  0.43400206  0.61990584    -0.22000
C300        C  0.89981171  0.45345473  0.62039705    -0.22000
C301        C  0.87732400  0.37463163  0.57385354    -0.23000
C302        C  0.88959747  0.38073011  0.58500203    -0.23000
C303        C  0.87389639  0.49117180  0.57665376    -0.23000
C304        C  0.88557712  0.49691098  0.58800021    -0.23000
C305        C  0.85356667  0.38671427  0.56307550    -0.18400
C306        C  0.85246876  0.45597446  0.56436802    -0.18400
C307        C  0.89394817  0.47627886  0.60432068    -0.18400
C308        C  0.89605046  0.40752098  0.60256134    -0.18400
H309        H  0.81864774  0.38518993  0.54770543     0.14600
H310        H  0.81779594  0.42237188  0.54863140     0.14600
H311        H  0.90352082  0.42617959  0.62796291     0.14600
H312        H  0.90245854  0.46350212  0.62889351     0.14600
H313        H  0.87426894  0.36085640  0.56767856     0.12800
H314        H  0.89781736  0.37254401  0.58908519     0.12800
H315        H  0.87057753  0.50200085  0.57082115     0.12800
H316        H  0.89305240  0.51306701  0.59263525     0.12800
H317        H  0.87307279  0.43167930  0.57087177     0.26100
H318        H  0.89244494  0.44126927  0.59008027     0.26100
N319        N  0.70563660  0.05642813  0.67647176    -0.27400
N320        N  0.69799075  0.07019238  0.67515550    -0.35200
C321        C  0.70979260  0.08796246  0.68286243     0.01000
C322        C  0.72540171  0.08516015  0.68952100     0.07000
C323        C  0.72241395  0.06508361  0.68508837    -0.06100
H324        H  0.70744247  0.10210430  0.68333604     0.07700
H325        H  0.73178655  0.05731960  0.68790694     0.08900
Cu326      Cu  0.67202384  0.06483141  0.66293177     0.44200
Cu327      Cu  0.69402334  0.02699041  0.66612571     0.42000
Cu328      Cu  0.65211018  0.01723964  0.64254645     0.43900
N329        N  0.64668253  0.05582338  0.64947810    -0.34700
N330        N  0.63948405  0.03817847  0.64196226    -0.29000
C331        C  0.62443027  0.03746949  0.63361872    -0.05100
C332        C  0.62217267  0.05574316  0.63583835     0.07100
C333        C  0.63629617  0.06684895  0.64611751     0.00900
H334        H  0.61661305  0.02520776  0.62603803     0.08600
H335        H  0.63931207  0.08214386  0.65059742     0.07700
N336        N  0.66661124  0.99803850  0.64413993    -0.36200
N337        N  0.68156150  0.00094845  0.65291649    -0.28400
C338        C  0.68671678  0.98491094  0.65147214    -0.03600
C339        C  0.67453787  0.97146357  0.64117106     0.05000
C340        C  0.66196583  0.98033606  0.63684761     0.03100
H341        H  0.69793250  0.98286854  0.65771914     0.08200
H342        H  0.65001737  0.97418979  0.62903584     0.07000
N343        N  0.70690296  0.64675596  0.67599706    -0.27400
N344        N  0.69996347  0.62546005  0.67401237    -0.35200
C345        C  0.71154752  0.61941116  0.68159730     0.01000
C346        C  0.72626328  0.63757014  0.68900169     0.07000
C347        C  0.72309284  0.65475826  0.68501953    -0.06100
H348        H  0.70945358  0.60295237  0.68158133     0.07700
H349        H  0.73164974  0.67172550  0.68858744     0.08900
Cu350      Cu  0.67433103  0.60474347  0.66163121     0.44200
Cu351      Cu  0.69337119  0.66337021  0.66636081     0.42000
Cu352      Cu  0.64641579  0.62747703  0.64468948     0.43900
N353        N  0.64765216  0.58585865  0.64944351    -0.34700
N354        N  0.63705244  0.59411264  0.64316467    -0.29000
C355        C  0.62106813  0.57792906  0.63578197    -0.05100
C356        C  0.62148713  0.55843279  0.63762329     0.07100
C357        C  0.63879419  0.56428299  0.64624333     0.00900
H358        H  0.61023846  0.58028795  0.62936320     0.08600
H359        H  0.64521359  0.55395004  0.64953387     0.07700
N360        N  0.65937418  0.66142927  0.64741928    -0.36200
N361        N  0.67602873  0.67445844  0.65522659    -0.28400
C362        C  0.67942372  0.69528567  0.65467806    -0.03600
C363        C  0.66437482  0.69543550  0.64598279     0.05000
C364        C  0.65192479  0.67360355  0.64167867     0.03100
H365        H  0.69153164  0.70904361  0.66048999     0.08200
H366        H  0.63834155  0.66696631  0.63481738     0.07000
N367        N  0.65233527  0.79560642  0.61989247    -0.27400
N368        N  0.63991657  0.78031549  0.61124199    -0.35200
C369        C  0.63741039  0.76065402  0.61474983     0.01000
C370        C  0.64866587  0.76356101  0.62620037     0.07000
C371        C  0.65818271  0.78601051  0.62912022    -0.06100
H372        H  0.62882164  0.74555978  0.60906014     0.07700
H373        H  0.66878567  0.79476304  0.63725300     0.08900
Cu374      Cu  0.62806253  0.78651659  0.59447155     0.44200
Cu375      Cu  0.66070047  0.82870779  0.61856361     0.42000
Cu376      Cu  0.63852387  0.84152141  0.58999467     0.43900
N377        N  0.61866369  0.79619412  0.57799612    -0.34700
N378        N  0.62218897  0.81653217  0.57641442    -0.29000
C379        C  0.61408006  0.81773537  0.56489579    -0.05100
C380        C  0.60506618  0.79712783  0.55895654     0.07100
C381        C  0.60846779  0.78393593  0.56747114     0.00900
H382        H  0.61507648  0.83261449  0.56102942     0.08600
H383        H  0.60379868  0.76669542  0.56614152     0.07700
N384        N  0.65439087  0.86343527  0.60511578    -0.36200
N385        N  0.66275799  0.85907103  0.61537202    -0.28400
C386        C  0.67005321  0.87618562  0.62371540    -0.03600
C387        C  0.66578157  0.89184121  0.61851198     0.05000
C388        C  0.65603491  0.88332425  0.60669289     0.03100
H389        H  0.67655010  0.87649518  0.63321731     0.08200
H390        H  0.64959232  0.89053655  0.60000300     0.07000
O391        O  0.82825176  0.62157375  0.75726649    -0.73000
O392        O  0.78707060  0.62220722  0.73048902    -0.74000
O393        O  0.82713894  0.62064553  0.73001346    -0.62600
O394        O  0.78825831  0.62298527  0.75775900    -0.71000
O395        O  0.80777414  0.65998704  0.75711265    -0.70600
O396        O  0.84753611  0.65760631  0.72988705    -0.61800
O397        O  0.80722549  0.65907759  0.72989816    -0.74300
O398        O  0.84793298  0.65852781  0.75715599    -0.73100
Cu399      Cu  0.80699134  0.62057568  0.74388961     1.04600
Cu400      Cu  0.82831081  0.66008181  0.74349310     1.04300
C401        C  0.84475152  0.63989990  0.76136407     0.93200
C402        C  0.79047535  0.64076506  0.72599265     0.92300
C403        C  0.84368795  0.63872113  0.72569325     0.84500
C404        C  0.79171038  0.64183840  0.76171164     0.90700
O405        O  0.84932556  0.18236549  0.75777444    -0.73000
O406        O  0.80749085  0.14235075  0.73016123    -0.74000
O407        O  0.84991286  0.18269915  0.73039188    -0.62600
O408        O  0.80685376  0.14231804  0.75752877    -0.71000
O409        O  0.79022806  0.16218468  0.75729519    -0.70600
O410        O  0.83285953  0.20214827  0.73041330    -0.61800
O411        O  0.79070564  0.16202926  0.73014524    -0.74300
O412        O  0.83267888  0.20222634  0.75750619    -0.73100
Cu413      Cu  0.82899434  0.16173056  0.74396815     1.04600
Cu414      Cu  0.81105457  0.18281945  0.74383189     1.04300
C415        C  0.84780583  0.19881247  0.76185319     0.93200
C416        C  0.79232612  0.14573648  0.72585804     0.92300
C417        C  0.84817990  0.19895824  0.72617947     0.84500
C418        C  0.79167834  0.14586984  0.76165047     0.90700
O419        O  0.36298322  0.19777201  0.75466067    -0.73000
O420        O  0.35981894  0.15436041  0.72812256    -0.74000
O421        O  0.36073719  0.19543911  0.72736115    -0.62600
O422        O  0.36220168  0.15681584  0.75533333    -0.71000
O423        O  0.32514915  0.13756703  0.75591827    -0.70600
O424        O  0.32376893  0.17769394  0.72842202    -0.61800
O425        O  0.32285413  0.13627629  0.72854375    -0.74300
O426        O  0.32599058  0.17917982  0.75569321    -0.73100
Cu427      Cu  0.36267712  0.17671287  0.74133340     1.04600
Cu428      Cu  0.32310899  0.15701210  0.74220096     1.04300
C429        C  0.34493908  0.19544640  0.75928199     0.93200
C430        C  0.34097364  0.13854491  0.72407489     0.92300
C431        C  0.34216293  0.19278333  0.72347540     0.84500
C432        C  0.34397160  0.14100748  0.75996790     0.90700
N433        N  0.34016818  0.27711991  0.81077864    -0.27400
N434        N  0.36206641  0.28625867  0.81168951    -0.35200
C435        C  0.36868755  0.27576767  0.80356394     0.01000
C436        C  0.35009791  0.25883051  0.79737094     0.07000
C437        C  0.33234801  0.26045150  0.80207317    -0.06100
H438        H  0.38588779  0.28033748  0.80225813     0.07700
H439        H  0.31492114  0.24993562  0.79955161     0.08900
Cu440      Cu  0.38245470  0.31158876  0.82446320     0.44200
Cu441      Cu  0.32172633  0.28715985  0.82176297     0.42000
Cu442      Cu  0.35466422  0.32761610  0.84666336     0.43900
N443        N  0.39914545  0.33464528  0.83907073    -0.34700
N444        N  0.38863133  0.34029670  0.84741102    -0.29000
C445        C  0.40339454  0.35476275  0.85598152    -0.05100
C446        C  0.42432130  0.35830519  0.85300476     0.07100
C447        C  0.42099068  0.34545560  0.84208776     0.00900
H448        H  0.39911302  0.36184330  0.86395544     0.08600
H449        H  0.43346263  0.34413790  0.83663870     0.07700
N450        N  0.32080640  0.31419750  0.84416981    -0.36200
N451        N  0.30859514  0.29996653  0.83500536    -0.28400
C452        C  0.28734943  0.29525325  0.83623889    -0.03600
C453        C  0.28634440  0.30707498  0.84670223     0.05000
C454        C  0.30779164  0.31871774  0.85150018     0.03100
H455        H  0.27361820  0.28372808  0.83018125     0.08200
H456        H  0.31357233  0.32979268  0.85973056     0.07000
N457        N  0.93310171  0.27535412  0.81622620    -0.27400
N458        N  0.92117410  0.28513243  0.81556626    -0.35200
C459        C  0.90491877  0.27451620  0.80681163     0.01000
C460        C  0.90651076  0.25706629  0.80173503     0.07000
C461        C  0.92472047  0.25819460  0.80785431    -0.06100
H462        H  0.89269056  0.27907187  0.80438838     0.07700
H463        H  0.93165717  0.24765701  0.80619567     0.08900
Cu464      Cu  0.92658255  0.31174866  0.82693411     0.44200
Cu465      Cu  0.96000349  0.28606853  0.82861951     0.42000
Cu466      Cu  0.96235242  0.32332043  0.85415271     0.43900
N467        N  0.92998159  0.33348071  0.84145255    -0.34700
N468        N  0.94195612  0.33658821  0.85191473    -0.29000
C469        C  0.93893021  0.34975033  0.86007517    -0.05100
C470        C  0.92420131  0.35514060  0.85451214     0.07100
C471        C  0.91927749  0.34482003  0.84256474     0.00900
H472        H  0.94661155  0.35469753  0.86947560     0.08600
H473        H  0.90876831  0.34539308  0.83513333     0.07700
N474        N  0.98548262  0.31340318  0.85178229    -0.36200
N475        N  0.98514227  0.30058504  0.84230304    -0.28400
C476        C  0.00376888  0.29941343  0.84289895    -0.03600
C477        C  0.01658244  0.31231220  0.85315575     0.05000
C478        C  0.00420564  0.32055802  0.85869637     0.03100
H479        H  0.00792553  0.29027177  0.83616066     0.08200
H480        H  0.00841229  0.33107238  0.86711512     0.07000
N481        N  0.18916107  0.32150268  0.87527185    -0.27400
N482        N  0.20400118  0.33171339  0.88453996    -0.35200
C483        C  0.22175399  0.32955671  0.88230452     0.01000
C484        C  0.21791318  0.31715657  0.87119129     0.07000
C485        C  0.19718481  0.31258961  0.86688690    -0.06100
H486        H  0.23667043  0.33709692  0.88816963     0.07700
H487        H  0.18863039  0.30358218  0.85825441     0.08900
Cu488      Cu  0.20045544  0.34883236  0.89981009     0.44200
Cu489      Cu  0.15907389  0.32086240  0.87423423     0.42000
Cu490      Cu  0.15036889  0.35034180  0.90039921     0.43900
N491        N  0.19326541  0.36473607  0.91424925    -0.34700
N492        N  0.17460400  0.36521584  0.91441241    -0.29000
C493        C  0.17414063  0.37591127  0.92505574    -0.05100
C494        C  0.19361019  0.38273986  0.93191979     0.07100
C495        C  0.20524179  0.37514623  0.92482420     0.00900
H496        H  0.16020126  0.37770812  0.92782174     0.08600
H497        H  0.22107183  0.37675451  0.92727753     0.07700
N498        N  0.12842539  0.33515704  0.88531873    -0.36200
N499        N  0.13134911  0.32443002  0.87574311    -0.28400
C500        C  0.11414030  0.31728897  0.86747444    -0.03600
C501        C  0.09966436  0.32371343  0.87217203     0.05000
C502        C  0.10939804  0.33512487  0.88343325     0.03100
H503        H  0.11269684  0.30869065  0.85853986     0.08200
H504        H  0.10316550  0.34299369  0.88978653     0.07000
N505        N  0.56403512  0.13422706  0.91970777    -0.36700
N506        N  0.58241595  0.11297437  0.90420913    -0.57200
N507        N  0.54387773  0.09474249  0.88716387    -0.36700
N508        N  0.52624523  0.11750944  0.90211802    -0.57200
C509        C  0.58537208  0.14475113  0.92400297     0.26900
C510        C  0.55549566  0.14714406  0.92293632     0.26900
C511        C  0.55752679  0.09026444  0.88019769     0.26900
C512        C  0.52722535  0.09204089  0.87927979     0.26900
C513        C  0.59690349  0.11981371  0.91417039     0.35500
C514        C  0.58652194  0.09937839  0.89698953     0.35500
C515        C  0.51932235  0.12632596  0.91131648     0.35500
C516        C  0.50855133  0.10536689  0.89429685     0.35500
C517        C  0.59036179  0.16447175  0.93009691    -0.22000
C518        C  0.57148893  0.16594969  0.92945341    -0.22000
C519        C  0.54919215  0.08417873  0.86780688    -0.22000
C520        C  0.52997379  0.08509279  0.86726007    -0.22000
C521        C  0.61010121  0.11031455  0.91336858    -0.23000
C522        C  0.60358918  0.09743755  0.90244470    -0.23000
C523        C  0.49716533  0.11980798  0.90933124    -0.23000
C524        C  0.49037205  0.10664329  0.89851680    -0.23000
C525        C  0.60015895  0.13658484  0.92302048    -0.18400
C526        C  0.53332340  0.14189957  0.92070793    -0.18400
C527        C  0.50909497  0.09468664  0.88282212    -0.18400
C528        C  0.57677330  0.09061656  0.88486366    -0.18400
H529        H  0.60596302  0.17653506  0.93458784     0.14600
H530        H  0.56974230  0.17935863  0.93335668     0.14600
H531        H  0.55608578  0.07932252  0.85999685     0.14600
H532        H  0.51928164  0.08108725  0.85892571     0.14600
H533        H  0.62350276  0.11296121  0.91975400     0.12800
H534        H  0.61093549  0.08813099  0.89876613     0.12800
H535        H  0.48709940  0.12450064  0.91490394     0.12800
H536        H  0.47402506  0.09926137  0.89413895     0.12800
H537        H  0.55509195  0.11810352  0.91601632     0.26100
H538        H  0.54467510  0.09738613  0.89702707     0.26100
N539        N  0.78663048  0.28509607  0.96834646    -0.27400
N540        N  0.77279501  0.27808727  0.95846024    -0.35200
C541        C  0.78073050  0.29375165  0.94928659     0.01000
C542        C  0.80066514  0.31167699  0.95349115     0.07000
C543        C  0.80386791  0.30571255  0.96571136    -0.06100
H544        H  0.77253022  0.29213539  0.94017034     0.07700
H545        H  0.81739383  0.31566337  0.97229808     0.08900
Cu546      Cu  0.74350522  0.24796521  0.95761395     0.44200
Cu547      Cu  0.78069105  0.26528839  0.98451583     0.42000
Cu548      Cu  0.72829225  0.20938263  0.98302333     0.43900
N549        N  0.71456235  0.21747602  0.95736516    -0.34700
N550        N  0.70855540  0.20262414  0.96666547    -0.29000
C551        C  0.68900840  0.18434085  0.96338537    -0.05100
C552        C  0.68269234  0.18793945  0.95134484     0.07100
C553        C  0.69917302  0.20933425  0.94801250     0.00900
H554        H  0.68012361  0.16952867  0.96927392     0.08600
H555        H  0.69979291  0.21866385  0.93956028     0.07700
N556        N  0.75193465  0.22046907  0.99773265    -0.36200
N557        N  0.77043031  0.24032867  0.99833337    -0.28400
C558        C  0.78195593  0.24118523  0.00892137    -0.03600
C559        C  0.77014958  0.22101042  0.01533977     0.05000
C560        C  0.75134078  0.20826030  0.00790039     0.03100
H561        H  0.79819903  0.25515430  0.01144078     0.08200
H562        H  0.73831749  0.19115717  0.00963279     0.07000
N563        N  0.70707111  0.05878082  0.81225506    -0.27400
N564        N  0.69912869  0.07233220  0.81321767    -0.35200
C565        C  0.70992867  0.08921961  0.80482275     0.01000
C566        C  0.72529794  0.08608716  0.79816751     0.07000
C567        C  0.72316262  0.06673500  0.80322850    -0.06100
H568        H  0.70732402  0.10317109  0.80398961     0.07700
H569        H  0.73282750  0.05915856  0.80066752     0.08900
Cu570      Cu  0.67493872  0.06825924  0.82636202     0.44200
Cu571      Cu  0.69664703  0.03078013  0.82370995     0.42000
Cu572      Cu  0.65861989  0.02438502  0.84948178     0.43900
N573        N  0.65222015  0.06189033  0.84100133    -0.34700
N574        N  0.64658038  0.04606542  0.84968954    -0.29000
C575        C  0.63230547  0.04672198  0.85812970    -0.05100
C576        C  0.62891458  0.06394202  0.85466466     0.07100
C577        C  0.64159828  0.07296211  0.84362914     0.00900
H578        H  0.62523021  0.03572575  0.86633209     0.08600
H579        H  0.64299525  0.08650067  0.83785120     0.07700
N580        N  0.67092644  0.00324345  0.84665871    -0.36200
N581        N  0.68437512  0.00515678  0.83713587    -0.28400
C582        C  0.68880028  0.98855009  0.83803194    -0.03600
C583        C  0.67752971  0.97557151  0.84861665     0.05000
C584        C  0.66655262  0.98550496  0.85389267     0.03100
H585        H  0.69983852  0.98645204  0.83164735     0.08200
H586        H  0.65607014  0.98017179  0.86237328     0.07000
N587        N  0.70633783  0.65014347  0.80882531    -0.27400
N588        N  0.69678407  0.62816601  0.80871042    -0.35200
C589        C  0.70872572  0.62248449  0.80117015     0.01000
C590        C  0.72663081  0.64175122  0.79618837     0.07000
C591        C  0.72469515  0.65900284  0.80137133    -0.06100
H592        H  0.70473390  0.60551715  0.79951596     0.07700
H593        H  0.73609387  0.67672208  0.80016178     0.08900
Cu594      Cu  0.66897187  0.60656944  0.81942535     0.44200
Cu595      Cu  0.69447886  0.66719586  0.81942109     0.42000
Cu596      Cu  0.65147633  0.63265603  0.84238263     0.43900
N597        N  0.64401581  0.58879587  0.83275313    -0.34700
N598        N  0.63789768  0.59857096  0.84134587    -0.29000
C599        C  0.62243584  0.58298324  0.84914414    -0.05100
C600        C  0.61844686  0.56229415  0.84522645     0.07100
C601        C  0.63264708  0.56665547  0.83488524     0.00900
H602        H  0.61545665  0.58661197  0.85743774     0.08600
H603        H  0.63505457  0.55472109  0.82956400     0.07700
N604        N  0.66402664  0.66641281  0.84014518    -0.36200
N605        N  0.67927967  0.67912763  0.83156906    -0.28400
C606        C  0.68249821  0.69986001  0.83219338    -0.03600
C607        C  0.66832904  0.70001962  0.84149220     0.05000
C608        C  0.65721568  0.67861817  0.84646907     0.03100
H609        H  0.69407236  0.71369507  0.82621866     0.08200
H610        H  0.64510353  0.67228922  0.85418496     0.07000
N611        N  0.66321886  0.80258643  0.87059905    -0.27400
N612        N  0.65148800  0.78698068  0.87925036    -0.35200
C613        C  0.65043685  0.76796327  0.87573980     0.01000
C614        C  0.66222372  0.77173458  0.86441753     0.07000
C615        C  0.67005776  0.79385470  0.86137328    -0.06100
H616        H  0.64151279  0.75240746  0.88099055     0.07700
H617        H  0.67934872  0.80273383  0.85288542     0.08900
Cu618      Cu  0.63641429  0.79118807  0.89529216     0.44200
Cu619      Cu  0.66799200  0.83448922  0.87127758     0.42000
Cu620      Cu  0.63944550  0.84361076  0.89773655     0.43900
N621        N  0.62212365  0.79899610  0.91032115    -0.34700
N622        N  0.62312956  0.81837003  0.91116666    -0.29000
C623        C  0.61228040  0.81848392  0.92183423    -0.05100
C624        C  0.60426715  0.79827924  0.92811772     0.07100
C625        C  0.61061830  0.78623150  0.92043554     0.00900
H626        H  0.61048502  0.83232637  0.92484599     0.08600
H627        H  0.60678421  0.76928136  0.92190253     0.07700
N628        N  0.65709696  0.86690413  0.88350903    -0.36200
N629        N  0.66762709  0.86380606  0.87389191    -0.28400
C630        C  0.67642112  0.88183437  0.86616048    -0.03600
C631        C  0.67139954  0.89711426  0.87125137     0.05000
C632        C  0.65892020  0.88690775  0.88216595     0.03100
H633        H  0.68533754  0.88346359  0.85732238     0.08200
H634        H  0.65080348  0.89305504  0.88837312     0.07000
N635        N  0.85402983  0.42530192  0.91648452    -0.36700
N636        N  0.87138771  0.40270783  0.90127258    -0.57200
N637        N  0.88677697  0.43793420  0.88216602    -0.36700
N638        N  0.87083032  0.46126728  0.89823628    -0.57200
C639        C  0.85204448  0.40963953  0.92488354     0.26900
C640        C  0.85177177  0.44053594  0.92328722     0.26900
C641        C  0.89703685  0.42708801  0.87797072     0.26900
C642        C  0.89707161  0.45827343  0.87651550     0.26900
C643        C  0.85909499  0.38632668  0.90981563     0.35500
C644        C  0.87697111  0.39325179  0.89177740     0.35500
C645        C  0.85790463  0.46644153  0.90536828     0.35500
C646        C  0.87598454  0.47358177  0.88739741     0.35500
C647        C  0.84860041  0.41498416  0.93718597    -0.22000
C648        C  0.84852096  0.43458815  0.93618668    -0.22000
C649        C  0.91372665  0.44051964  0.86931408    -0.22000
C650        C  0.91387672  0.46027696  0.86848384    -0.22000
C651        C  0.85710562  0.36643096  0.90584486    -0.23000
C652        C  0.86861794  0.37086159  0.89446750    -0.23000
C653        C  0.85479080  0.48209982  0.89902002    -0.23000
C654        C  0.86645176  0.48679557  0.88767087    -0.23000
C655        C  0.85059899  0.38940408  0.92145805    -0.18400
C656        C  0.85028769  0.45830629  0.91791457    -0.18400
C657        C  0.89073475  0.47445881  0.87779982    -0.18400
C658        C  0.89090986  0.40497479  0.88124441    -0.18400
H659        H  0.84581904  0.40540949  0.94590315     0.14600
H660        H  0.84571999  0.44313521  0.94399762     0.14600
H661        H  0.92462982  0.43651143  0.86408023     0.14600
H662        H  0.92486232  0.47436189  0.86247256     0.14600
H663        H  0.84855719  0.35047592  0.91072036     0.12800
H664        H  0.87069775  0.35895124  0.88889365     0.12800
H665        H  0.84549636  0.48968711  0.90232849     0.12800
H666        H  0.86789329  0.49868455  0.88047840     0.12800
H667        H  0.85340293  0.42376481  0.90652686     0.26100
H668        H  0.87210335  0.43098791  0.88746791     0.26100
N669        N  0.71803106  0.52070162  0.95496157    -0.27400
N670        N  0.72114974  0.50801552  0.94681788    -0.35200
C671        C  0.70388158  0.49838445  0.93858861     0.01000
C672        C  0.68892600  0.50513795  0.94168113     0.07000
C673        C  0.69863985  0.51954914  0.95205645    -0.06100
H674        H  0.70215686  0.48694694  0.93102053     0.07700
H675        H  0.69229573  0.52872614  0.95707337     0.08900
Cu676      Cu  0.74865197  0.50421933  0.94724782     0.44200
Cu677      Cu  0.74039635  0.53820477  0.96979198     0.42000
Cu678      Cu  0.79038379  0.53284821  0.97152052     0.43900
N679        N  0.77737073  0.50264819  0.94862655    -0.34700
N680        N  0.79295700  0.51313826  0.95746736    -0.29000
C681        C  0.80932947  0.50857380  0.95556756    -0.05100
C682        C  0.80346877  0.49425078  0.94513367     0.07100
C683        C  0.78328271  0.49113622  0.94090756     0.00900
H684        H  0.82419532  0.51495138  0.96142331     0.08600
H685        H  0.77362441  0.48133845  0.93273103     0.07700
N686        N  0.78338470  0.55155785  0.98413425    -0.36200
N687        N  0.76545405  0.55341957  0.98364274    -0.28400
C688        C  0.76615015  0.56625610  0.99352894    -0.03600
C689        C  0.78557669  0.57305446  0.00048657     0.05000
C690        C  0.79592085  0.56321678  0.99426773     0.03100
H691        H  0.75304398  0.56968173  0.99570465     0.08200
H692        H  0.81140276  0.56427363  0.99698737     0.07000
N693        N  0.56671304  0.43490032  0.91534273    -0.36700
N694        N  0.52490428  0.41180282  0.90119707    -0.57200
N695        N  0.54024704  0.44963649  0.88391534    -0.36700
N696        N  0.58280998  0.47190387  0.89755480    -0.57200
C697        C  0.55804682  0.41392999  0.91997734     0.26900
C698        C  0.58877657  0.44621266  0.91817468     0.26900
C699        C  0.52206976  0.43398940  0.87745471     0.26900
C700        C  0.55313440  0.46585326  0.87539010     0.26900
C701        C  0.51960475  0.39751917  0.91117447     0.35500
C702        C  0.50569015  0.40539713  0.89478805     0.35500
C703        C  0.59935204  0.48120184  0.90638382     0.35500
C704        C  0.58562702  0.48860708  0.88974077     0.35500
C705        C  0.57473032  0.41199570  0.92598352    -0.22000
C706        C  0.59412000  0.43236173  0.92484170    -0.22000
C707        C  0.52315602  0.44060602  0.86475528    -0.22000
C708        C  0.54278884  0.46071483  0.86344788    -0.22000
C709        C  0.49690960  0.38205582  0.91115891    -0.23000
C710        C  0.48808028  0.38706120  0.90077870    -0.23000
C711        C  0.61263328  0.50395024  0.90425363    -0.23000
C712        C  0.60394702  0.50865148  0.89368364    -0.23000
C713        C  0.53531727  0.39678846  0.91941920    -0.18400
C714        C  0.60398506  0.46897812  0.91539515    -0.18400
C715        C  0.57359475  0.48551466  0.87822901    -0.18400
C716        C  0.50428420  0.41417123  0.88279861    -0.18400
H717        H  0.57311310  0.39742591  0.93072200     0.14600
H718        H  0.61031096  0.43649083  0.92851955     0.14600
H719        H  0.51111992  0.43180428  0.85718707     0.14600
H720        H  0.54878414  0.47039932  0.85468230     0.14600
H721        H  0.48779453  0.36821961  0.91771583     0.12800
H722        H  0.47079472  0.37783863  0.89775140     0.12800
H723        H  0.62744144  0.51576782  0.90950731     0.12800
H724        H  0.61073685  0.52483929  0.88917260     0.12800
H725        H  0.55767923  0.44174478  0.91167013     0.26100
H726        H  0.54274509  0.45017750  0.89379997     0.26100
N727        N  0.49766243  0.29095625  0.96483834    -0.27400
N728        N  0.51039875  0.28770159  0.95681022    -0.35200
C729        C  0.51942021  0.30443120  0.94821084     0.01000
C730        C  0.51209999  0.31910968  0.95087418     0.07000
C731        C  0.49813343  0.30984634  0.96146934    -0.06100
H732        H  0.53007505  0.30547999  0.94034296     0.07700
H733        H  0.48814936  0.31569608  0.96603075     0.08900
Cu734      Cu  0.51252292  0.25915302  0.95672517     0.44200
Cu735      Cu  0.47923128  0.26835504  0.97936508     0.42000
Cu736      Cu  0.47660287  0.21434939  0.97823880     0.43900
N737        N  0.50775942  0.22734815  0.95557848    -0.34700
N738        N  0.49433128  0.21067424  0.96323026    -0.29000
C739        C  0.49399486  0.19207693  0.95932263    -0.05100
C740        C  0.50762861  0.19725933  0.94857662     0.07100
C741        C  0.51631281  0.21988132  0.94665882     0.00900
H742        H  0.48423278  0.17588437  0.96382369     0.08600
H743        H  0.52812982  0.23031059  0.93936505     0.07700
N744        N  0.46021154  0.22283043  0.99186007    -0.36200
N745        N  0.46145660  0.24239757  0.99236782    -0.28400
C746        C  0.44931508  0.24244521  0.00242473    -0.03600
C747        C  0.43964850  0.22184648  0.00842986     0.05000
C748        C  0.44709407  0.20991627  0.00152905     0.03100
H749        H  0.44759662  0.25645565  0.00515385     0.08200
H750        H  0.44368480  0.19325144  0.00356439     0.07000
N751        N  0.99243908  0.66983606  0.83237370    -0.27400
N752        N  0.99657611  0.65535922  0.83804562    -0.35200
C753        C  0.01561262  0.66651403  0.84483136     0.01000
C754        C  0.02391100  0.68911382  0.84339270     0.07000
C755        C  0.00897168  0.69065577  0.83531256    -0.06100
H756        H  0.02272345  0.65871083  0.85053020     0.07700
H757        H  0.00970454  0.70578276  0.83214132     0.08900
Cu758      Cu  0.97552133  0.62107970  0.83741236     0.44200
Cu759      Cu  0.96353721  0.66049172  0.82177687     0.42000
Cu760      Cu  0.92087230  0.60163922  0.82506002     0.43900
N761        N  0.94973090  0.58835103  0.83913070    -0.34700
N762        N  0.92922706  0.58128129  0.83508002    -0.29000
C763        C  0.91567883  0.56027492  0.83927378    -0.05100
C764        C  0.92828063  0.55396844  0.84644581     0.07100
C765        C  0.94986412  0.57206538  0.84593337     0.00900
H766        H  0.89778836  0.55079777  0.83785394     0.08600
H767        H  0.96444960  0.57374852  0.85067072     0.07700
N768        N  0.91701872  0.62436463  0.81422693    -0.36200
N769        N  0.93239573  0.64567999  0.81279922    -0.28400
C770        C  0.92475590  0.65498362  0.80441685    -0.03600
C771        C  0.90351590  0.63872400  0.80044981     0.05000
C772        C  0.89931835  0.61957165  0.80685026     0.03100
H773        H  0.93440396  0.67200418  0.80100934     0.08200
H774        H  0.88465853  0.60310211  0.80592564     0.07000
N775        N  0.31902494  0.99562211  0.82931884    -0.27400
N776        N  0.33282062  0.99117690  0.83550782    -0.35200
C777        C  0.32090293  0.97149542  0.84157167     0.01000
C778        C  0.29842813  0.96305396  0.83913206     0.07000
C779        C  0.29793631  0.97874691  0.83116158    -0.06100
H780        H  0.32807255  0.96409067  0.84756709     0.07700
H781        H  0.28344857  0.97798003  0.82687404     0.08900
Cu782      Cu  0.36704549  0.01287662  0.83620560     0.44200
Cu783      Cu  0.32985054  0.02511166  0.81932440     0.42000
Cu784      Cu  0.38776449  0.06910399  0.82457543     0.43900
N785        N  0.39891242  0.03937006  0.83980322    -0.34700
N786        N  0.40599570  0.06020340  0.83643065    -0.29000
C787        C  0.42582605  0.07364594  0.84212045    -0.05100
C788        C  0.43148427  0.06066587  0.84950875     0.07100
C789        C  0.41418212  0.03894259  0.84746519     0.00900
H790        H  0.43504977  0.09164491  0.84129979     0.08600
H791        H  0.41240015  0.02378053  0.85136755     0.07700
N792        N  0.36599197  0.07190505  0.81208513    -0.36200
N793        N  0.34498970  0.05593979  0.81030336    -0.28400
C794        C  0.33559777  0.06273280  0.80152240    -0.03600
C795        C  0.35151005  0.08385439  0.79733500     0.05000
C796        C  0.37050975  0.08924160  0.80438740     0.03100
H797        H  0.31833851  0.05299318  0.79854205     0.08200
H798        H  0.38657258  0.10451246  0.80380570     0.07000
N799        N  0.19798389  0.85084271  0.86806279    -0.27400
N800        N  0.21362036  0.85417018  0.87649944    -0.35200
C801        C  0.23305949  0.87208636  0.87288402     0.01000
C802        C  0.22955584  0.88049654  0.86167117     0.07000
C803        C  0.20708995  0.86679693  0.85894030    -0.06100
H804        H  0.24853471  0.87879514  0.87819112     0.07700
H805        H  0.19810265  0.86814688  0.85084297     0.08900
Cu806      Cu  0.20828378  0.83528100  0.89301563     0.44200
Cu807      Cu  0.16534615  0.82395356  0.86887700     0.42000
Cu808      Cu  0.15468528  0.78597764  0.89551848     0.43900
N809        N  0.19820189  0.81499722  0.90923705    -0.34700
N810        N  0.17834302  0.79669080  0.91010222    -0.29000
C811        C  0.17677544  0.78675811  0.92146803    -0.05100
C812        C  0.19650384  0.79955831  0.92819101     0.07100
C813        C  0.20978051  0.81728612  0.92008104     0.00900
H814        H  0.16242927  0.77118113  0.92455118     0.08600
H815        H  0.22685437  0.83044799  0.92173373     0.07700
N816        N  0.13330518  0.77855280  0.87995567    -0.36200
N817        N  0.13658820  0.79267881  0.87056477    -0.28400
C818        C  0.11964477  0.78263957  0.86210049    -0.03600
C819        C  0.10521326  0.76084176  0.86613216     0.05000
C820        C  0.11441517  0.75908511  0.87760070     0.03100
H821        H  0.11808658  0.79084250  0.85370017     0.08200
H822        H  0.10810083  0.74452594  0.88370558     0.07000
N823        N  0.05371767  0.34076027  0.30935285    -0.27400
N824        N  0.06835598  0.36237475  0.31033813    -0.35200
C825        C  0.08584960  0.36756305  0.30264892     0.01000
C826        C  0.08218232  0.34838155  0.29642740     0.07000
C827        C  0.06167559  0.33164860  0.30106214    -0.06100
H828        H  0.10028685  0.38416939  0.30169244     0.07700
H829        H  0.05336871  0.31401667  0.29891407     0.08900
Cu830      Cu  0.06469745  0.38416981  0.32231152     0.44200
Cu831      Cu  0.02360847  0.32457929  0.31940159     0.42000
Cu832      Cu  0.01373163  0.36045424  0.34015148     0.43900
N833        N  0.05714523  0.40251103  0.33490424    -0.34700
N834        N  0.03813799  0.39369193  0.34130222    -0.29000
C835        C  0.03829665  0.40932063  0.34892381    -0.05100
C836        C  0.05836642  0.42909804  0.34721898     0.07100
C837        C  0.07000584  0.42405893  0.33834173     0.00900
H838        H  0.02497914  0.40632768  0.35546987     0.08600
H839        H  0.08694048  0.43490062  0.33504748     0.07700
N840        N  0.99201962  0.32657043  0.33840937    -0.36200
N841        N  0.99526719  0.31329385  0.33082005    -0.28400
C842        C  0.97783655  0.29230593  0.33207013    -0.03600
C843        C  0.96311703  0.29241472  0.34102237     0.05000
C844        C  0.97264984  0.31448759  0.34471835     0.03100
H845        H  0.97594494  0.27816823  0.32669547     0.08200
H846        H  0.96609140  0.32129376  0.35161462     0.07000
N847        N  0.67504743  0.98122194  0.33479423    -0.27400
N848        N  0.66144963  0.98721108  0.33979057    -0.35200
C849        C  0.67355620  0.00693889  0.34580211     0.01000
C850        C  0.69581736  0.01373765  0.34448447     0.07000
C851        C  0.69626820  0.99714230  0.33745517    -0.06100
H852        H  0.66663375  0.01545760  0.35098405     0.07700
H853        H  0.71086384  0.99645293  0.33472567     0.08900
Cu854      Cu  0.62703473  0.96773386  0.33923210     0.44200
Cu855      Cu  0.66381931  0.95104960  0.32519904     0.42000
Cu856      Cu  0.60416090  0.91183106  0.32702182     0.43900
N857        N  0.59372780  0.94337483  0.34076816    -0.34700
N858        N  0.58555092  0.92254296  0.33698591    -0.29000
C859        C  0.56439035  0.91016150  0.34117598    -0.05100
C860        C  0.55875645  0.92393873  0.34773693     0.07100
C861        C  0.57792787  0.94489654  0.34726480     0.00900
H862        H  0.55452467  0.89221639  0.34025367     0.08600
H863        H  0.58068799  0.95997607  0.35191646     0.07700
N864        N  0.62598612  0.90615151  0.31638431    -0.36200
N865        N  0.64777482  0.92015196  0.31593609    -0.28400
C866        C  0.65685370  0.91191913  0.30784279    -0.03600
C867        C  0.64000907  0.89174708  0.30283398     0.05000
C868        C  0.62062302  0.88889189  0.30843239     0.03100
H869        H  0.67442845  0.92040840  0.30549079     0.08200
H870        H  0.60364113  0.87603165  0.30634940     0.07000
N871        N  0.85094099  0.19114833  0.36883179    -0.27400
N872        N  0.85403981  0.20609556  0.37768313    -0.35200
C873        C  0.87193542  0.22582782  0.37447553     0.01000
C874        C  0.88047772  0.22318790  0.36305201     0.07000
C875        C  0.86694110  0.20094605  0.35980442    -0.06100
H876        H  0.87852274  0.24087152  0.38019078     0.07700
H877        H  0.86850531  0.19254950  0.35146745     0.08900
Cu878      Cu  0.83454229  0.19909673  0.39402111     0.44200
Cu879      Cu  0.82470694  0.15841153  0.36929592     0.42000
Cu880      Cu  0.78904206  0.14257871  0.39759658     0.43900
N881        N  0.81371853  0.18798927  0.40992984    -0.34700
N882        N  0.79724909  0.16713228  0.41135247    -0.29000
C883        C  0.78650061  0.16537746  0.42243137    -0.05100
C884        C  0.79679499  0.18611764  0.42831876     0.07100
C885        C  0.81386731  0.20008491  0.42004875     0.00900
H886        H  0.77166608  0.15034269  0.42564041     0.08600
H887        H  0.82531365  0.21782793  0.42119089     0.07700
N888        N  0.78252799  0.12213549  0.38169907    -0.36200
N889        N  0.79547490  0.12792654  0.37140850    -0.28400
C890        C  0.78579373  0.11164600  0.36254406    -0.03600
C891        C  0.76565243  0.09488950  0.36742589     0.05000
C892        C  0.76427858  0.10198625  0.37965115     0.03100
H893        H  0.79283884  0.11215502  0.35318891     0.08200
H894        H  0.75061174  0.09348957  0.38638475     0.07000
N895        N  0.29050880  0.34191419  0.30777987    -0.27400
N896        N  0.30072926  0.36392269  0.30691103    -0.35200
C897        C  0.28913101  0.36928537  0.29884253     0.01000
C898        C  0.27063538  0.34982176  0.29439324     0.07000
C899        C  0.27204166  0.33282433  0.30039981    -0.06100
H900        H  0.29345329  0.38622212  0.29673709     0.07700
H901        H  0.25995398  0.31514644  0.30005441     0.08900
Cu902      Cu  0.32801257  0.38636080  0.31800701     0.44200
Cu903      Cu  0.30082808  0.32455246  0.31944228     0.42000
Cu904      Cu  0.34324892  0.35970438  0.34182916     0.43900
N905        N  0.35098114  0.40393990  0.33256210    -0.34700
N906        N  0.35615758  0.39373288  0.34139102    -0.29000
C907        C  0.37006566  0.40874607  0.35002561    -0.05100
C908        C  0.37416293  0.42961824  0.34646742     0.07100
C909        C  0.36151600  0.42588766  0.33540655     0.00900
H910        H  0.37591328  0.40452949  0.35859711     0.08600
H911        H  0.35967267  0.43812043  0.33002741     0.07700
N912        N  0.33069396  0.32579308  0.34053396    -0.36200
N913        N  0.31519329  0.31249625  0.33223469    -0.28400
C914        C  0.31191307  0.29175865  0.33342285    -0.03600
C915        C  0.32636071  0.29228096  0.34279391     0.05000
C916        C  0.33767930  0.31405446  0.34720142     0.03100
H917        H  0.30043993  0.27756870  0.32762850     0.08200
H918        H  0.35035209  0.32101318  0.35461281     0.07000
N919        N  0.29020484  0.93146725  0.31307783    -0.27400
N920        N  0.29479757  0.91564329  0.31549898    -0.35200
C921        C  0.28193951  0.89790246  0.30799295     0.01000
C922        C  0.26842493  0.90264438  0.30055620     0.07000
C923        C  0.27429464  0.92417940  0.30395578    -0.06100
H924        H  0.28245909  0.88267056  0.30791931     0.07700
H925        H  0.26795397  0.93410368  0.29987620     0.08900
Cu926      Cu  0.31823143  0.91852571  0.32884033     0.44200
Cu927      Cu  0.30557535  0.96221270  0.32229533     0.42000
Cu928      Cu  0.34266721  0.96790847  0.34835717     0.43900
N929        N  0.34058904  0.92445677  0.34359817    -0.34700
N930        N  0.34899011  0.94231193  0.35102650    -0.29000
C931        C  0.36241931  0.94113147  0.35984623    -0.05100
C932        C  0.36252801  0.92152626  0.35792278     0.07100
C933        C  0.34867605  0.91154498  0.34738848     0.00900
H934        H  0.37152718  0.95372917  0.36709476     0.08600
H935        H  0.34517454  0.89640335  0.34251931     0.07700
N936        N  0.33493071  0.99194569  0.34363838    -0.36200
N937        N  0.32154951  0.99010144  0.33410222    -0.28400
C938        C  0.31995698  0.00852570  0.33381228    -0.03600
C939        C  0.33282301  0.02252479  0.34373061     0.05000
C940        C  0.34221577  0.01152111  0.34964659     0.03100
H941        H  0.31031908  0.01152620  0.32681432     0.08200
H942        H  0.35332490  0.01719921  0.35786009     0.07000
N943        N  0.34190887  0.19390904  0.36887498    -0.27400
N944        N  0.35375698  0.20930445  0.37762970    -0.35200
C945        C  0.35267886  0.22763557  0.37518478     0.01000
C946        C  0.33924928  0.22356480  0.36453563     0.07000
C947        C  0.33275393  0.20204533  0.36073017    -0.06100
H948        H  0.36127600  0.24295397  0.38068330     0.07700
H949        H  0.32292045  0.19331646  0.35235238     0.08900
Cu950      Cu  0.37130047  0.20552838  0.39261362     0.44200
Cu951      Cu  0.34059870  0.16342480  0.36759601     0.42000
Cu952      Cu  0.37177350  0.15481673  0.39257631     0.43900
N953        N  0.38644516  0.19726319  0.40703209    -0.34700
N954        N  0.38666163  0.17845182  0.40688050    -0.29000
C955        C  0.39762846  0.17761915  0.41729270    -0.05100
C956        C  0.40472562  0.19689348  0.42436456     0.07100
C957        C  0.39713141  0.20887911  0.41766535     0.00900
H958        H  0.39990082  0.16381015  0.41964818     0.08600
H959        H  0.39926229  0.22485553  0.42031263     0.07700
N960        N  0.35759304  0.13397319  0.37696261    -0.36200
N961        N  0.34602611  0.13668736  0.36781428    -0.28400
C962        C  0.33978036  0.12028301  0.35904311    -0.03600
C963        C  0.34819447  0.10694163  0.36280598     0.05000
C964        C  0.35907998  0.11597830  0.37429112     0.03100
H965        H  0.33011373  0.11837725  0.35048859     0.08200
H966        H  0.36727324  0.10978863  0.38040173     0.07000
N967        N  0.43391308  0.85397255  0.42130328    -0.36700
N968        N  0.41166046  0.87200571  0.40643959    -0.57200
N969        N  0.44916322  0.89245620  0.38855653    -0.36700
N970        N  0.47053286  0.87266629  0.40276456    -0.57200
C971        C  0.41315851  0.84236438  0.42642220     0.26900
C972        C  0.44477164  0.84339694  0.42482438     0.26900
C973        C  0.43426823  0.89589542  0.38219964     0.26900
C974        C  0.46536244  0.89590372  0.38007487     0.26900
C975        C  0.39733166  0.86364752  0.41645552     0.35500
C976        C  0.40576425  0.88461096  0.39959267     0.35500
C977        C  0.47917577  0.86489202  0.41154610     0.35500
C978        C  0.48684081  0.88436208  0.39405984     0.35500
C979        C  0.41098095  0.82447929  0.43346527    -0.22000
C980        C  0.43093813  0.82515856  0.43248481    -0.22000
C981        C  0.44130993  0.90205692  0.36960392    -0.22000
C982        C  0.46098874  0.90223140  0.36828777    -0.22000
C983        C  0.38226442  0.87095479  0.41599166    -0.23000
C984        C  0.38766694  0.88433363  0.40533253    -0.23000
C985        C  0.50100898  0.87155111  0.40838362    -0.23000
C986        C  0.50578033  0.88363921  0.39723745    -0.23000
C987        C  0.39633809  0.84784172  0.42529406    -0.18400
C988        C  0.46701066  0.84998929  0.42162336    -0.18400
C989        C  0.48446181  0.89444623  0.38282584    -0.18400
C990        C  0.41490392  0.89443359  0.38754447    -0.18400
H991        H  0.39650336  0.81217037  0.43876202     0.14600
H992        H  0.43474518  0.81341038  0.43684606     0.14600
H993        H  0.43320924  0.90617952  0.36213454     0.14600
H994        H  0.47090509  0.90661559  0.35960179     0.14600
H995        H  0.36854011  0.86671119  0.42250300     0.12800
H996        H  0.37888987  0.89244887  0.40199953     0.12800
H997        H  0.51211688  0.86750981  0.41335647     0.12800
H998        H  0.52135731  0.89076581  0.39200393     0.12800
H999        H  0.44102182  0.86937581  0.41676328     0.26100
H1000       H  0.44938199  0.89009542  0.39839781     0.26100
N1001       N  0.51275892  0.70906396  0.46267055    -0.27400
N1002       N  0.49825656  0.71207903  0.45617183    -0.35200
C1003       C  0.48643283  0.69460059  0.44832136     0.01000
C1004       C  0.49366630  0.67961371  0.44991964     0.07000
C1005       C  0.51059607  0.68950264  0.45904336    -0.06100
H1006       H  0.47368270  0.69309540  0.44176632     0.07700
H1007       H  0.52108558  0.68338478  0.46250967     0.08900
Cu1008     Cu  0.49652886  0.74068464  0.45728434     0.44200
Cu1009     Cu  0.53446858  0.73222691  0.47607880     0.42000
Cu1010     Cu  0.53710442  0.78645324  0.47612067     0.43900
N1011       N  0.50070918  0.77215579  0.45671561    -0.34700
N1012       N  0.51617024  0.78942764  0.46324232    -0.29000
C1013       C  0.51563613  0.80777194  0.45984935    -0.05100
C1014       C  0.49886062  0.80159826  0.45078838     0.07100
C1015       C  0.48988247  0.77891744  0.44904062     0.00900
H1016       H  0.52717863  0.82440321  0.46335205     0.08600
H1017       H  0.47676446  0.76815180  0.44241398     0.07700
N1018       N  0.55225287  0.77671902  0.48962678    -0.36200
N1019       N  0.55135402  0.75730638  0.48970385    -0.28400
C1020       C  0.56118624  0.75589355  0.50051731    -0.03600
C1021       C  0.56868849  0.77535296  0.50753180     0.05000
C1022       C  0.56259481  0.78806176  0.50035571     0.03100
H1023       H  0.56163211  0.74123500  0.50339986     0.08200
H1024       H  0.56474864  0.80405859  0.50298103     0.07000
N1025       N  0.14166901  0.56339976  0.41386982    -0.36700
N1026       N  0.11974646  0.52443658  0.39737325    -0.57200
N1027       N  0.10266497  0.54679207  0.38157693    -0.36700
N1028       N  0.12313831  0.58502652  0.39892149    -0.57200
C1029       C  0.14470562  0.54874534  0.42076050     0.26900
C1030       C  0.14617251  0.58063431  0.42175416     0.26900
C1031       C  0.09044609  0.52567138  0.37704200     0.26900
C1032       C  0.09252416  0.55791474  0.37769853     0.26900
C1033       C  0.13325708  0.51943775  0.40401750     0.35500
C1034       C  0.11204889  0.51038610  0.38721842     0.35500
C1035       C  0.13711349  0.60236398  0.40652358     0.35500
C1036       C  0.11660932  0.59358838  0.38939278     0.35500
C1037       C  0.15126148  0.55673972  0.43317211    -0.22000
C1038       C  0.15225867  0.57691220  0.43379475    -0.22000
C1039       C  0.07242756  0.52339341  0.37008968    -0.22000
C1040       C  0.07376015  0.54377376  0.37048651    -0.22000
C1041       C  0.13405782  0.50205233  0.39811545    -0.23000
C1042       C  0.12058899  0.49629489  0.38745663    -0.23000
C1043       C  0.13921400  0.62198629  0.40191592    -0.23000
C1044       C  0.12633613  0.61645247  0.39101293    -0.23000
C1045       C  0.14366324  0.52939495  0.41579923    -0.18400
C1046       C  0.14693171  0.60047330  0.41798344    -0.18400
C1047       C  0.10044182  0.58078341  0.37994493    -0.18400
C1048       C  0.09595554  0.50888218  0.37838077    -0.18400
H1049       H  0.15541083  0.54908085  0.44089146     0.14600
H1050       H  0.15740035  0.58778767  0.44210415     0.14600
H1051       H  0.05975133  0.50864253  0.36514677     0.14600
H1052       H  0.06227871  0.54775556  0.36592996     0.14600
H1053       H  0.14313458  0.49414151  0.40126138     0.12800
H1054       H  0.11722396  0.48305388  0.38074874     0.12800
H1055       H  0.14883358  0.63852678  0.40603586     0.12800
H1056       H  0.12404530  0.62789385  0.38510194     0.12800
H1057       H  0.13971828  0.56312267  0.40395419     0.26100
H1058       H  0.11833649  0.55389983  0.38580465     0.26100
N1059       N  0.28762408  0.78363061  0.46881089    -0.27400
N1060       N  0.28540059  0.76623740  0.46241812    -0.35200
C1061       C  0.30337158  0.77282200  0.45492054     0.01000
C1062       C  0.31777898  0.79549628  0.45664263     0.07000
C1063       C  0.30718816  0.80183297  0.46551865    -0.06100
H1064       H  0.30527900  0.76206284  0.44820205     0.07700
H1065       H  0.31254111  0.81859985  0.46870515     0.08900
Cu1066     Cu  0.25657274  0.73519278  0.46222833     0.44200
Cu1067     Cu  0.26248455  0.78162879  0.48047864     0.42000
Cu1068     Cu  0.20751698  0.73126596  0.47586349     0.43900
N1069       N  0.22481334  0.70816077  0.45936188    -0.34700
N1070       N  0.20657560  0.70724784  0.46367055    -0.29000
C1071       C  0.18862880  0.68901146  0.45878233    -0.05100
C1072       C  0.19590439  0.67756678  0.45119062     0.07100
C1073       C  0.21902015  0.69041302  0.45179749     0.00900
H1074       H  0.17168332  0.68515617  0.46020170     0.08600
H1075       H  0.23088451  0.68751250  0.44678022     0.07700
N1076       N  0.21427134  0.75601515  0.48926865    -0.36200
N1077       N  0.23412795  0.77408686  0.49099503    -0.28400
C1078       C  0.23303023  0.78574169  0.50098323    -0.03600
C1079       C  0.21141973  0.77462922  0.50572505     0.05000
C1080       C  0.20007229  0.75573418  0.49812725     0.03100
H1081       H  0.24723612  0.80063020  0.50488062     0.08200
H1082       H  0.18288433  0.74242424  0.49917747     0.07000
N1083       N  0.42887324  0.56082552  0.41626163    -0.36700
N1084       N  0.46971864  0.58266760  0.40111824    -0.57200
N1085       N  0.45218220  0.54364541  0.38428515    -0.36700
N1086       N  0.41059434  0.52273359  0.39871640    -0.57200
C1087       C  0.43862852  0.58162171  0.42132651     0.26900
C1088       C  0.40722797  0.54983158  0.41997649     0.26900
C1089       C  0.47082859  0.55803611  0.37769037     0.26900
C1090       C  0.43913679  0.52644567  0.37630120     0.26900
C1091       C  0.47582055  0.59798882  0.41062045     0.35500
C1092       C  0.48818508  0.58892308  0.39395116     0.35500
C1093       C  0.39420411  0.51447695  0.40764345     0.35500
C1094       C  0.40645722  0.50552771  0.39091409     0.35500
C1095       C  0.42315834  0.58366261  0.42865092    -0.22000
C1096       C  0.40340303  0.56361194  0.42785053    -0.22000
C1097       C  0.46992129  0.54950243  0.36548873    -0.22000
C1098       C  0.44985523  0.52973799  0.36456698    -0.22000
C1099       C  0.49818837  0.61414423  0.40942153    -0.23000
C1100       C  0.50599278  0.60848187  0.39886195    -0.23000
C1101       C  0.37956919  0.49190620  0.40547970    -0.23000
C1102       C  0.38744823  0.48620338  0.39496640    -0.23000
C1103       C  0.46119261  0.59874196  0.41975879    -0.18400
C1104       C  0.39102252  0.52744184  0.41690019    -0.18400
C1105       C  0.41822440  0.50743697  0.37944762    -0.18400
C1106       C  0.48894779  0.57831268  0.38248004    -0.18400
H1107       H  0.42578782  0.59811905  0.43401358     0.14600
H1108       H  0.38799060  0.55969859  0.43257140     0.14600
H1109       H  0.48234917  0.55677157  0.35795907     0.14600
H1110       H  0.44393222  0.51896059  0.35620871     0.14600
H1111       H  0.50779343  0.62877434  0.41537333     0.12800
H1112       H  0.52280107  0.61802955  0.39510814     0.12800
H1113       H  0.36448309  0.48074382  0.41071430     0.12800
H1114       H  0.37965620  0.46983950  0.39056497     0.12800
H1115       H  0.43697179  0.55387688  0.41153206     0.26100
H1116       H  0.44954526  0.54449932  0.39404223     0.26100
N1117       N  0.27925325  0.47773733  0.45750783    -0.27400
N1118       N  0.27065214  0.47961132  0.44660444    -0.35200
C1119       C  0.28608948  0.48629678  0.43728527     0.01000
C1120       C  0.30548132  0.48875511  0.44252758     0.07000
C1121       C  0.30054293  0.48340124  0.45544285    -0.06100
H1122       H  0.28353001  0.48975988  0.42749044     0.07700
H1123       H  0.31177923  0.48452418  0.46295898     0.08900
Cu1124     Cu  0.23964407  0.47627542  0.44529400     0.44200
Cu1125     Cu  0.26150790  0.46811442  0.47461980     0.42000
Cu1126     Cu  0.20757522  0.46525275  0.47434442     0.43900
N1127       N  0.21240264  0.48014114  0.44679538    -0.34700
N1128       N  0.20074504  0.47679366  0.45744878    -0.29000
C1129       C  0.18587632  0.48336825  0.45541039    -0.05100
C1130       C  0.18872747  0.49155236  0.44295055     0.07100
C1131       C  0.20542667  0.48889520  0.43775930     0.00900
H1132       H  0.17455229  0.48313452  0.46260805     0.08600
H1133       H  0.21253198  0.49361952  0.42821540     0.07700
N1134       N  0.21920060  0.45437131  0.48952392    -0.36200
N1135       N  0.23884015  0.45576312  0.48968727    -0.28400
C1136       C  0.24077446  0.44662448  0.50065083    -0.03600
C1137       C  0.22148585  0.43919582  0.50779052     0.05000
C1138       C  0.20812740  0.44421284  0.50037641     0.03100
H1139       H  0.25478956  0.44466049  0.50295854     0.08200
H1140       H  0.19138921  0.44040112  0.50261891     0.07000
N1141       N  0.65819853  0.71327007  0.31527750    -0.27400
N1142       N  0.63746506  0.70769104  0.31805344    -0.35200
C1143       C  0.63102364  0.71832649  0.30993067     0.01000
C1144       C  0.64836217  0.73096074  0.30147491     0.07000
C1145       C  0.66542345  0.72756635  0.30529396    -0.06100
H1146       H  0.61489293  0.71698525  0.31025642     0.07700
H1147       H  0.68179277  0.73467145  0.30098067     0.08900
Cu1148     Cu  0.61782195  0.68464239  0.33204156     0.44200
Cu1149     Cu  0.67578433  0.70096472  0.32488862     0.42000
Cu1150     Cu  0.64143466  0.65466083  0.34599114     0.43900
N1151       N  0.60014179  0.65750426  0.34421663    -0.34700
N1152       N  0.60848965  0.64560207  0.34865324    -0.29000
C1153       C  0.59281058  0.62838669  0.35554995    -0.05100
C1154       C  0.57363410  0.62975520  0.35586114     0.07100
C1155       C  0.57901944  0.64843463  0.34840427     0.00900
H1156       H  0.59536577  0.61572477  0.35972099     0.08600
H1157       H  0.56844335  0.65513882  0.34621930     0.07700
N1158       N  0.67565133  0.66912634  0.34441581    -0.36200
N1159       N  0.68839265  0.68585991  0.33660521    -0.28400
C1160       C  0.70986315  0.69176888  0.33841233    -0.03600
C1161       C  0.71052336  0.67813016  0.34786350     0.05000
C1162       C  0.68859800  0.66413938  0.35150251     0.03100
H1163       H  0.72396303  0.70552088  0.33360434     0.08200
H1164       H  0.68252617  0.65152732  0.35894960     0.07000
N1165       N  0.06820446  0.71659489  0.31393878    -0.27400
N1166       N  0.08301438  0.71037752  0.31571938    -0.35200
C1167       C  0.10056748  0.72238788  0.30792172     0.01000
C1168       C  0.09684890  0.73703508  0.30088874     0.07000
C1169       C  0.07602593  0.73273273  0.30490832    -0.06100
H1170       H  0.11485340  0.72028108  0.30723901     0.07700
H1171       H  0.06678793  0.74010818  0.30120238     0.08900
Cu1172     Cu  0.07859850  0.68481039  0.32789853     0.44200
Cu1173     Cu  0.03771757  0.70242232  0.32363222     0.42000
Cu1174     Cu  0.02716572  0.65668534  0.34499691     0.43900
N1175       N  0.06968600  0.65738559  0.33961775    -0.34700
N1176       N  0.05042944  0.64682152  0.34577013    -0.29000
C1177       C  0.04949279  0.63015906  0.35274731    -0.05100
C1178       C  0.06909495  0.63005733  0.35086274     0.07100
C1179       C  0.08160234  0.64774302  0.34255071     0.00900
H1180       H  0.03573493  0.61923599  0.35897151     0.08600
H1181       H  0.09848826  0.65382735  0.33930862     0.07700
N1182       N  0.00658632  0.66976020  0.34348963    -0.36200
N1183       N  0.00992106  0.68612340  0.33566654    -0.28400
C1184       C  0.99311323  0.69015631  0.33721990    -0.03600
C1185       C  0.97871195  0.67580320  0.34660804     0.05000
C1186       C  0.98783193  0.66309116  0.35024448     0.03100
H1187       H  0.99137667  0.70233141  0.33172609     0.08200
H1188       H  0.98137504  0.64994915  0.35738195     0.07000
N1189       N  0.81163439  0.67099732  0.37677656    -0.27400
N1190       N  0.79780757  0.66169971  0.38657557    -0.35200
C1191       C  0.77960746  0.66320629  0.38465039     0.01000
C1192       C  0.78210677  0.67437862  0.37318801     0.07000
C1193       C  0.80256022  0.67882632  0.36838554    -0.06100
H1194       H  0.76514688  0.65564213  0.39087136     0.07700
H1195       H  0.81005147  0.68667203  0.35930258     0.08900
Cu1196     Cu  0.80305248  0.64597913  0.40187517     0.44200
Cu1197     Cu  0.84113482  0.67062472  0.37479983     0.42000
Cu1198     Cu  0.85015333  0.63912336  0.39970184     0.43900
N1199       N  0.81064844  0.62969588  0.41576062    -0.34700
N1200       N  0.82801563  0.62702341  0.41493080    -0.29000
C1201       C  0.82806917  0.61518234  0.42511993    -0.05100
C1202       C  0.80991109  0.61033660  0.43280438     0.07100
C1203       C  0.79913904  0.61963348  0.42649618     0.00900
H1204       H  0.84001968  0.60989335  0.42656080     0.08600
H1205       H  0.78389325  0.61890356  0.42941520     0.07700
N1206       N  0.87046481  0.65312874  0.38381136    -0.36200
N1207       N  0.86762424  0.66488178  0.37483036    -0.28400
C1208       C  0.88393659  0.67140338  0.36598763    -0.03600
C1209       C  0.89738870  0.66303078  0.36951009     0.05000
C1210       C  0.88848538  0.65178328  0.38092193     0.03100
H1211       H  0.88565848  0.68117792  0.35751745     0.08200
H1212       H  0.89475207  0.64339004  0.38680060     0.07000
O1213       O  0.18472413  0.32826491  0.25817680    -0.73000
O1214       O  0.14507033  0.32824113  0.22980415    -0.74000
O1215       O  0.18622307  0.32833961  0.23105648    -0.62600
O1216       O  0.14311820  0.32769785  0.25712577    -0.71000
O1217       O  0.16231687  0.36470516  0.25751279    -0.70600
O1218       O  0.20469470  0.36536071  0.23093200    -0.61800
O1219       O  0.16385001  0.36522094  0.23016640    -0.74300
O1220       O  0.20355910  0.36524086  0.25810795    -0.73100
Cu1221     Cu  0.16407608  0.32683191  0.24405378     1.04600
Cu1222     Cu  0.18418996  0.36638745  0.24420336     1.04300
C1223       C  0.20089798  0.34684596  0.26232496     0.93200
C1224       C  0.14814638  0.34683198  0.22557434     0.92300
C1225       C  0.20236886  0.34692892  0.22697887     0.84500
C1226       C  0.14590607  0.34612327  0.26142882     0.90700
O1227       O  0.63328939  0.78569187  0.25579270    -0.73000
O1228       O  0.63289927  0.82639613  0.22857811    -0.74000
O1229       O  0.63464685  0.78707003  0.22830393    -0.62600
O1230       O  0.63121431  0.82513575  0.25613272    -0.71000
O1231       O  0.66812272  0.84563886  0.25678260    -0.70600
O1232       O  0.67165121  0.80672913  0.22915724    -0.61800
O1233       O  0.66988186  0.84645219  0.22927010    -0.74300
O1234       O  0.67012635  0.80601852  0.25661080    -0.73100
Cu1235     Cu  0.63174271  0.80538302  0.24219622     1.04600
Cu1236     Cu  0.67123411  0.82692446  0.24299094     1.04300
C1237       C  0.65178405  0.78954205  0.26065584     0.93200
C1238       C  0.65140288  0.84264371  0.22446526     0.92300
C1239       C  0.65359451  0.79100993  0.22421782     0.84500
C1240       C  0.64906228  0.84133929  0.26093935     0.90700
N1241       N  0.06589578  0.34229455  0.17101604    -0.27400
N1242       N  0.07661901  0.36427701  0.17210073    -0.35200
C1243       C  0.09294959  0.37076786  0.18090364     0.01000
C1244       C  0.09287092  0.35204885  0.18547433     0.07000
C1245       C  0.07525275  0.33428302  0.17907135    -0.06100
H1246       H  0.10379750  0.38789281  0.18386737     0.07700
H1247       H  0.06975131  0.31677735  0.18011004     0.08900
Cu1248     Cu  0.06964547  0.38484647  0.16106652     0.44200
Cu1249     Cu  0.03910836  0.32417138  0.15853310     0.42000
Cu1250     Cu  0.03095051  0.35736243  0.13493269     0.43900
N1251       N  0.06289760  0.40181391  0.14702378    -0.34700
N1252       N  0.04961506  0.39175313  0.13711845    -0.29000
C1253       C  0.05051902  0.40726433  0.12906112    -0.05100
C1254       C  0.06471707  0.42827646  0.13422526     0.07100
C1255       C  0.07234544  0.42401875  0.14561179     0.00900
H1256       H  0.04231091  0.40335407  0.11980860     0.08600
H1257       H  0.08448789  0.43617819  0.15220722     0.07700
N1258       N  0.01109958  0.32288771  0.13607078    -0.36200
N1259       N  0.01365448  0.31066597  0.14485183    -0.28400
C1260       C  0.99744067  0.28915773  0.14331946    -0.03600
C1261       C  0.98398903  0.28783121  0.13311607     0.05000
C1262       C  0.99331557  0.30952801  0.12870836     0.03100
H1263       H  0.99574088  0.27551826  0.14913360     0.08200
H1264       H  0.98729182  0.31526403  0.12088164     0.07000
N1265       N  0.65657311  0.92609592  0.17104539    -0.27400
N1266       N  0.63534239  0.91103801  0.16897665    -0.35200
C1267       C  0.62982819  0.89275511  0.17600849     0.01000
C1268       C  0.64855341  0.89613140  0.18266640     0.07000
C1269       C  0.66514828  0.91758069  0.17927328    -0.06100
H1270       H  0.61299836  0.87870017  0.17678964     0.07700
H1271       H  0.68209353  0.92671544  0.18285594     0.08900
Cu1272     Cu  0.61383439  0.91595936  0.15750723     0.44200
Cu1273     Cu  0.67273072  0.95844857  0.16383149     0.42000
Cu1274     Cu  0.63585115  0.97233413  0.14759722     0.43900
N1275       N  0.59551534  0.92617700  0.14680304    -0.34700
N1276       N  0.60344742  0.94727775  0.14373601    -0.29000
C1277       C  0.58799541  0.94898695  0.13696342    -0.05100
C1278       C  0.56949573  0.92779925  0.13531368     0.07100
C1279       C  0.57483166  0.91379892  0.14188317     0.00900
H1280       H  0.59025875  0.96463968  0.13357041     0.08600
H1281       H  0.56464396  0.89584354  0.14276517     0.07700
N1282       N  0.66995815  0.99387424  0.14905465    -0.36200
N1283       N  0.68374723  0.98897712  0.15488742    -0.28400
C1284       C  0.70491441  0.00547257  0.15263884    -0.03600
C1285       C  0.70428493  0.02121722  0.14482596     0.05000
C1286       C  0.68187360  0.01344829  0.14291340     0.03100
H1287       H  0.71962257  0.00525516  0.15569672     0.08200
H1288       H  0.67473558  0.02087854  0.13691439     0.07000
N1289       N  0.86761094  0.18797364  0.10916649    -0.27400
N1290       N  0.87062985  0.20241565  0.10001806    -0.35200
C1291       C  0.89144005  0.22013433  0.10089381     0.01000
C1292       C  0.90227315  0.21671327  0.11101203     0.07000
C1293       C  0.88650898  0.19619821  0.11611509    -0.06100
H1294       H  0.89773600  0.23494928  0.09501627     0.07700
H1295       H  0.88841056  0.18813616  0.12450228     0.08900
Cu1296     Cu  0.84612875  0.19840535  0.08719665     0.44200
Cu1297     Cu  0.83732871  0.15862971  0.11231861     0.42000
Cu1298     Cu  0.79202382  0.14940639  0.09075943     0.43900
N1299       N  0.81973189  0.19066244  0.07496186    -0.34700
N1300       N  0.79991485  0.17233881  0.07603206    -0.29000
C1301       C  0.78668715  0.17189067  0.06646192    -0.05100
C1302       C  0.79882487  0.19091158  0.05906888     0.07100
C1303       C  0.81960953  0.20251109  0.06480050     0.00900
H1304       H  0.76942132  0.15893335  0.06514333     0.08600
H1305       H  0.83366127  0.21833680  0.06175922     0.07700
N1306       N  0.78843919  0.12876945  0.10608963    -0.36200
N1307       N  0.80484630  0.13166180  0.11374603    -0.28400
C1308       C  0.79679598  0.11483938  0.12233788    -0.03600
C1309       C  0.77410007  0.10084521  0.12013393     0.05000
C1310       C  0.76955131  0.11023306  0.10968366     0.03100
H1311       H  0.80696070  0.11278762  0.12940581     0.08200
H1312       H  0.75358751  0.10403987  0.10499944     0.07000
N1313       N  0.29235953  0.34305556  0.18116702    -0.27400
N1314       N  0.29956060  0.36460892  0.18009882    -0.35200
C1315       C  0.28701596  0.36957002  0.18761434     0.01000
C1316       C  0.27101636  0.35034042  0.19378218     0.07000
C1317       C  0.27486234  0.33379718  0.18934218    -0.06100
H1318       H  0.28920814  0.38604098  0.18837538     0.07700
H1319       H  0.26515569  0.31614627  0.19143648     0.08900
Cu1320     Cu  0.32517899  0.38686273  0.16800655     0.44200
Cu1321     Cu  0.30621281  0.32692723  0.17117728     0.42000
Cu1322     Cu  0.35399452  0.36443227  0.15164894     0.43900
N1323       N  0.35136869  0.40568797  0.15533612    -0.34700
N1324       N  0.36251857  0.39738796  0.14974979    -0.29000
C1325       C  0.37802564  0.41282986  0.14190105    -0.05100
C1326       C  0.37665183  0.43197549  0.14239647     0.07100
C1327       C  0.35930381  0.42663962  0.15099931     0.00900
H1328       H  0.38897821  0.40994358  0.13591280     0.08600
H1329       H  0.35202472  0.43661133  0.15340211     0.07700
N1330       N  0.34132852  0.33040211  0.15278410    -0.36200
N1331       N  0.32390704  0.31640128  0.15980754    -0.28400
C1332       C  0.31975876  0.29550538  0.15775089    -0.03600
C1333       C  0.33547748  0.29649938  0.14910961     0.05000
C1334       C  0.34859628  0.31891428  0.14607762     0.03100
H1335       H  0.30609369  0.28064712  0.16205246     0.08200
H1336       H  0.36186598  0.32635077  0.13903895     0.07000
N1337       N  0.29186464  0.93760205  0.17285841    -0.27400
N1338       N  0.29877028  0.92322761  0.17158412    -0.35200
C1339       C  0.28629127  0.90542934  0.17912825     0.01000
C1340       C  0.27061478  0.90854670  0.18541590     0.07000
C1341       C  0.27483474  0.92927734  0.18133805    -0.06100
H1342       H  0.28866852  0.89134669  0.18006838     0.07700
H1343       H  0.26598317  0.93756374  0.18420226     0.08900
Cu1344     Cu  0.32458880  0.92768805  0.15960827     0.44200
Cu1345     Cu  0.30556415  0.96761088  0.16271856     0.42000
Cu1346     Cu  0.34764295  0.97537855  0.13922142     0.43900
N1347       N  0.34965674  0.93489185  0.14634000    -0.34700
N1348       N  0.35794522  0.95248565  0.13871497    -0.29000
C1349       C  0.37323742  0.95241954  0.13089080    -0.05100
C1350       C  0.37491271  0.93397188  0.13380579     0.07100
C1351       C  0.35949269  0.92309917  0.14356812     0.00900
H1352       H  0.38183631  0.96448325  0.12332187     0.08600
H1353       H  0.35546579  0.90757312  0.14817807     0.07700
N1354       N  0.33705359  0.99772623  0.14209126    -0.36200
N1355       N  0.32208506  0.99540116  0.15071775    -0.28400
C1356       C  0.31945923  0.01319731  0.14994520    -0.03600
C1357       C  0.33364956  0.02745552  0.14046957     0.05000
C1358       C  0.34422939  0.01683050  0.13560381     0.03100
H1359       H  0.30792336  0.01548579  0.15576257     0.08200
H1360       H  0.35576129  0.02210549  0.12761309     0.07000
N1361       N  0.33782638  0.19508314  0.11584641    -0.27400
N1362       N  0.34717701  0.20966579  0.10637639    -0.35200
C1363       C  0.34796550  0.22870106  0.10966035     0.01000
C1364       C  0.33833879  0.22584856  0.12167252     0.07000
C1365       C  0.33216561  0.20438122  0.12535166    -0.06100
H1366       H  0.35528168  0.24363150  0.10381020     0.07700
H1367       H  0.32484952  0.19641040  0.13443922     0.08900
Cu1368     Cu  0.35917921  0.20340221  0.08957653     0.44200
Cu1369     Cu  0.33504306  0.16399988  0.11572145     0.42000
Cu1370     Cu  0.35538327  0.15026651  0.08668701     0.43900
N1371       N  0.37124859  0.19444695  0.07384237    -0.34700
N1372       N  0.36966299  0.17482800  0.07268611    -0.29000
C1373       C  0.37990225  0.17460186  0.06175607    -0.05100
C1374       C  0.38863246  0.19520287  0.05582263     0.07100
C1375       C  0.38253669  0.20723295  0.06369248     0.00900
H1376       H  0.38150765  0.16072454  0.05857213     0.08600
H1377       H  0.38606237  0.22407408  0.06220285     0.07700
N1378       N  0.34436289  0.13057647  0.10307544    -0.36200
N1379       N  0.33678379  0.13535978  0.11353126    -0.28400
C1380       C  0.33208252  0.11964230  0.12249942    -0.03600
C1381       C  0.33699905  0.10433745  0.11743593     0.05000
C1382       C  0.34489821  0.11185268  0.10516926     0.03100
H1383       H  0.32629938  0.11980186  0.13213946     0.08200
H1384       H  0.35098147  0.10448127  0.09834715     0.07000
N1385       N  0.29030641  0.79429445  0.02094327    -0.27400
N1386       N  0.28769865  0.77797196  0.02854100    -0.35200
C1387       C  0.30506041  0.78563389  0.03661065     0.01000
C1388       C  0.31952770  0.80798097  0.03405423     0.07000
C1389       C  0.30959262  0.81300852  0.02405890    -0.06100
H1390       H  0.30676007  0.77569569  0.04401060     0.07700
H1391       H  0.31545210  0.82914446  0.01969146     0.08900
Cu1392     Cu  0.25992938  0.74653952  0.02868798     0.44200
Cu1393     Cu  0.26659185  0.78926455  0.00711288     0.42000
Cu1394     Cu  0.21498269  0.73278686  0.00733143     0.43900
N1395       N  0.23024771  0.71670554  0.02961102    -0.34700
N1396       N  0.21325001  0.71112191  0.02181133    -0.29000
C1397       C  0.19632422  0.69076780  0.02527152    -0.05100
C1398       C  0.20322941  0.68324258  0.03568731     0.07100
C1399       C  0.22471581  0.70040539  0.03824030     0.00900
H1400       H  0.18016638  0.68214705  0.02062562     0.08600
H1401       H  0.23539143  0.70146126  0.04608713     0.07700
N1402       N  0.22258616  0.75776495  0.99367980    -0.36200
N1403       N  0.24092322  0.77778152  0.99362794    -0.28400
C1404       C  0.24067388  0.78905265  0.98318234    -0.03600
C1405       C  0.22144943  0.77553431  0.97619355     0.05000
C1406       C  0.21025402  0.75594088  0.98327085     0.03100
H1407       H  0.25385706  0.80573215  0.98068128     0.08200
H1408       H  0.19423182  0.74137772  0.98109005     0.07000
N1409       N  0.14446378  0.56606450  0.07001539    -0.36700
N1410       N  0.12882080  0.58839065  0.08637397    -0.57200
N1411       N  0.10897958  0.54972780  0.10359266    -0.36700
N1412       N  0.12328734  0.52669077  0.08631639    -0.57200
C1413       C  0.14869488  0.58365790  0.06253135     0.26900
C1414       C  0.14517372  0.55081928  0.06233414     0.26900
C1415       C  0.09945913  0.56107513  0.10815473     0.26900
C1416       C  0.09750529  0.52883110  0.10852996     0.26900
C1417       C  0.14340954  0.60598033  0.07913005     0.35500
C1418       C  0.12333698  0.59683459  0.09645385     0.35500
C1419       C  0.13545957  0.52125876  0.07865072     0.35500
C1420       C  0.11660146  0.51252168  0.09643205     0.35500
C1421       C  0.15192287  0.57946491  0.04991063    -0.22000
C1422       C  0.14965521  0.55867621  0.04978149    -0.22000
C1423       C  0.08192140  0.54730528  0.11626445    -0.22000
C1424       C  0.08082219  0.52703583  0.11659284    -0.22000
C1425       C  0.14729905  0.62573468  0.08465934    -0.23000
C1426       C  0.13439337  0.61991703  0.09558627    -0.23000
C1427       C  0.13633711  0.50344561  0.08385977    -0.23000
C1428       C  0.12413178  0.49770511  0.09501188    -0.23000
C1429       C  0.15169278  0.60411100  0.06707174    -0.18400
C1430       C  0.14487069  0.53150933  0.06671378    -0.18400
C1431       C  0.10256949  0.51183683  0.10647833    -0.18400
C1432       C  0.10699364  0.58386580  0.10577135    -0.18400
H1433       H  0.15604272  0.59047685  0.04171760     0.14600
H1434       H  0.15187055  0.55059799  0.04149569     0.14600
H1435       H  0.07118273  0.55148162  0.12154573     0.14600
H1436       H  0.06908875  0.51266934  0.12217734     0.14600
H1437       H  0.15785187  0.64251026  0.08102863     0.12800
H1438       H  0.13309321  0.63133046  0.10208168     0.12800
H1439       H  0.14469172  0.49523821  0.08000743     0.12800
H1440       H  0.12118508  0.48412830  0.10131827     0.12800
H1441       H  0.14460418  0.56595155  0.08001802     0.26100
H1442       H  0.12383684  0.55651489  0.09848635     0.26100
N1443       N  0.50476894  0.70373719  0.02122592    -0.27400
N1444       N  0.49637658  0.70902829  0.03105047    -0.35200
C1445       C  0.48830011  0.69248579  0.03972228     0.01000
C1446       C  0.49175546  0.67580705  0.03525154     0.07000
C1447       C  0.50243267  0.68361953  0.02348033    -0.06100
H1448       H  0.48059732  0.69270848  0.04871544     0.07700
H1449       H  0.50871751  0.67572459  0.01720395     0.08900
Cu1450     Cu  0.49665535  0.73863462  0.03263914     0.44200
Cu1451     Cu  0.51901625  0.72486962  0.00553679     0.42000
Cu1452     Cu  0.51476358  0.77584731  0.00600253     0.43900
N1453       N  0.49532867  0.76748748  0.03248787    -0.34700
N1454       N  0.50077420  0.78082902  0.02243955    -0.29000
C1455       C  0.49700256  0.79745396  0.02531226    -0.05100
C1456       C  0.48877455  0.79439707  0.03782899     0.07100
C1457       C  0.48844650  0.77539391  0.04207479     0.00900
H1458       H  0.50022867  0.81088161  0.01880494     0.08600
H1459       H  0.48429120  0.76806300  0.05155748     0.07700
N1460       N  0.53070607  0.76797759  0.99179077    -0.36200
N1461       N  0.53200639  0.74970996  0.99155783    -0.28400
C1462       C  0.54365218  0.75029715  0.98109897    -0.03600
C1463       C  0.54996511  0.76977556  0.97434499     0.05000
C1464       C  0.54169767  0.78068729  0.98155035     0.03100
H1465       H  0.54733291  0.73745987  0.97861948     0.08200
H1466       H  0.54404919  0.79701774  0.97978026     0.07000
N1467       N  0.43596375  0.86069272  0.06700385    -0.36700
N1468       N  0.41684298  0.88068760  0.08338201    -0.57200
N1469       N  0.45447963  0.89699227  0.10084905    -0.36700
N1470       N  0.47267000  0.87526552  0.08511462    -0.57200
C1471       C  0.41515496  0.85133600  0.06199880     0.26900
C1472       C  0.44480769  0.84851483  0.06278670     0.26900
C1473       C  0.44093879  0.90155146  0.10787829     0.26900
C1474       C  0.47101923  0.89934386  0.10869938     0.26900
C1475       C  0.40272359  0.87461348  0.07328639     0.35500
C1476       C  0.41243913  0.89368687  0.09096421     0.35500
C1477       C  0.47953210  0.86609280  0.07608229     0.35500
C1478       C  0.48959233  0.88570863  0.09365140     0.35500
C1479       C  0.41100063  0.83344569  0.05422880    -0.22000
C1480       C  0.42973433  0.83180626  0.05461423    -0.22000
C1481       C  0.44919404  0.90721696  0.12031117    -0.22000
C1482       C  0.46829652  0.90609552  0.12078508    -0.22000
C1483       C  0.38935304  0.88387030  0.07439682    -0.23000
C1484       C  0.39554947  0.89602022  0.08558981    -0.23000
C1485       C  0.50076674  0.87044825  0.07898384    -0.23000
C1486       C  0.50716300  0.88288757  0.09006542    -0.23000
C1487       C  0.39992427  0.85875119  0.06392431    -0.18400
C1488       C  0.46616850  0.85210833  0.06592997    -0.18400
C1489       C  0.48898262  0.89644027  0.10512355    -0.18400
C1490       C  0.42187103  0.90164320  0.10326087    -0.18400
H1491       H  0.39600808  0.82261506  0.04881162     0.14600
H1492       H  0.43180979  0.81950251  0.04947934     0.14600
H1493       H  0.44233391  0.91192147  0.12821064     0.14600
H1494       H  0.47890680  0.90979323  0.12912982     0.14600
H1495       H  0.37610012  0.88157689  0.06799251     0.12800
H1496       H  0.38804964  0.90502661  0.08950601     0.12800
H1497       H  0.51048461  0.86486870  0.07380773     0.12800
H1498       H  0.52278820  0.88866050  0.09507006     0.12800
H1499       H  0.44428287  0.87557228  0.07209995     0.26100
H1500       H  0.45380902  0.89462602  0.09097538     0.26100
N1501       N  0.43207970  0.55912420  0.06935881    -0.36700
N1502       N  0.41300607  0.52240273  0.08777479    -0.57200
N1503       N  0.45523731  0.54284877  0.10169626    -0.36700
N1504       N  0.47354679  0.58029318  0.08385937    -0.57200
C1505       C  0.41013458  0.54923629  0.06643413     0.26900
C1506       C  0.44217500  0.58011634  0.06456309     0.26900
C1507       C  0.44226679  0.52612745  0.10996432     0.26900
C1508       C  0.47432395  0.55734252  0.10797013     0.26900
C1509       C  0.39609508  0.51431781  0.07913499     0.35500
C1510       C  0.40806310  0.50565568  0.09616760     0.35500
C1511       C  0.48005970  0.59393902  0.07351886     0.35500
C1512       C  0.49227200  0.58566309  0.09050813     0.35500
C1513       C  0.40628473  0.56396476  0.05955856    -0.22000
C1514       C  0.42647757  0.58347804  0.05842124    -0.22000
C1515       C  0.45364099  0.52975476  0.12152458    -0.22000
C1516       C  0.47370180  0.54950409  0.12030248    -0.22000
C1517       C  0.38032227  0.49240192  0.08206427    -0.23000
C1518       C  0.38767781  0.48704277  0.09292976    -0.23000
C1519       C  0.50305673  0.60786941  0.07350099    -0.23000
C1520       C  0.51079063  0.60272462  0.08431806    -0.23000
C1521       C  0.39359392  0.52699067  0.06936159    -0.18400
C1522       C  0.46529723  0.59603823  0.06515903    -0.18400
C1523       C  0.49270988  0.57690772  0.10269191    -0.18400
C1524       C  0.42090568  0.50725537  0.10717325    -0.18400
H1525       H  0.39052386  0.56100185  0.05579854     0.14600
H1526       H  0.42922573  0.59844164  0.05361857     0.14600
H1527       H  0.44824260  0.51928822  0.13000038     0.14600
H1528       H  0.48650922  0.55705327  0.12762277     0.14600
H1529       H  0.36479199  0.48154060  0.07710970     0.12800
H1530       H  0.37874246  0.47124042  0.09792242     0.12800
H1531       H  0.51309413  0.62096758  0.06668378     0.12800
H1532       H  0.52802147  0.61095623  0.08742860     0.12800
H1533       H  0.44000398  0.55125307  0.07322120     0.26100
H1534       H  0.45214087  0.54321935  0.09197041     0.26100
N1535       N  0.28059973  0.47446553  0.02924405    -0.27400
N1536       N  0.27667385  0.48737978  0.03672140    -0.35200
C1537       C  0.29347717  0.49808131  0.04511553     0.01000
C1538       C  0.30870100  0.49132069  0.04312335     0.07000
C1539       C  0.30017658  0.47656168  0.03280918    -0.06100
H1540       H  0.29457809  0.51019204  0.05202639     0.07700
H1541       H  0.30758974  0.46792373  0.02829407     0.08900
Cu1542     Cu  0.24843637  0.48956007  0.03587911     0.44200
Cu1543     Cu  0.25866883  0.45533247  0.01457129     0.42000
Cu1544     Cu  0.20657324  0.45782055  0.01295415     0.43900
N1545       N  0.21863097  0.48880955  0.03526693    -0.34700
N1546       N  0.20277450  0.47712645  0.02678683    -0.29000
C1547       C  0.18558556  0.48036301  0.02894500    -0.05100
C1548       C  0.19093770  0.49461325  0.03942478     0.07100
C1549       C  0.21208036  0.49965073  0.04308115     0.00900
H1550       H  0.17062770  0.47328146  0.02313370     0.08600
H1551       H  0.22202225  0.51039312  0.05090857     0.07700
N1552       N  0.21546477  0.44091715  0.00005219    -0.36200
N1553       N  0.23393928  0.43998534  0.00052963    -0.28400
C1554       C  0.23460766  0.42881779  0.99012643    -0.03600
C1555       C  0.21561082  0.42226227  0.98280663     0.05000
C1556       C  0.20399431  0.43036496  0.98939110     0.03100
H1557       H  0.24850036  0.42669801  0.98775242     0.08200
H1558       H  0.18857065  0.42923563  0.98645373     0.07000
N1559       N  0.66240095  0.71961497  0.16746529    -0.27400
N1560       N  0.64044561  0.71018512  0.16691908    -0.35200
C1561       C  0.63402002  0.72040056  0.17539503     0.01000
C1562       C  0.65281214  0.73718443  0.18153948     0.07000
C1563       C  0.67047186  0.73599630  0.17634856    -0.06100
H1564       H  0.61683840  0.71553711  0.17718394     0.07700
H1565       H  0.68793865  0.74633238  0.17883100     0.08900
Cu1566     Cu  0.62002171  0.68356005  0.15481498     0.44200
Cu1567     Cu  0.68040256  0.70994003  0.15595411     0.42000
Cu1568     Cu  0.64804581  0.66838599  0.13142357     0.43900
N1569       N  0.60323893  0.65804564  0.14139170    -0.34700
N1570       N  0.61352517  0.65279067  0.13264352    -0.29000
C1571       C  0.59817592  0.63661404  0.12498778    -0.05100
C1572       C  0.57706951  0.63112146  0.12918764     0.07100
C1573       C  0.58106337  0.64524855  0.13956764     0.00900
H1574       H  0.60223412  0.63016434  0.11662334     0.08600
H1575       H  0.56872817  0.64651755  0.14520992     0.07700
N1576       N  0.68250873  0.68413664  0.13319650    -0.36200
N1577       N  0.69425413  0.69859314  0.14238183    -0.28400
C1578       C  0.71584460  0.70456599  0.14114408    -0.03600
C1579       C  0.71770333  0.69339687  0.13065077     0.05000
C1580       C  0.69631837  0.68075952  0.12579731     0.03100
H1581       H  0.72919689  0.71628948  0.14734593     0.08200
H1582       H  0.69110181  0.66955858  0.11763259     0.07000
N1583       N  0.06869171  0.71700210  0.16952967    -0.27400
N1584       N  0.08173617  0.70842079  0.16953733    -0.35200
C1585       C  0.09867899  0.71996958  0.17777126     0.01000
C1586       C  0.09659727  0.73703603  0.18305446     0.07000
C1587       C  0.07716186  0.73442205  0.17773056    -0.06100
H1588       H  0.11134739  0.71589255  0.17988653     0.07700
H1589       H  0.06978081  0.74450351  0.17962675     0.08900
Cu1590     Cu  0.07672499  0.68188517  0.15814327     0.44200
Cu1591     Cu  0.03994560  0.70420098  0.15839856     0.42000
Cu1592     Cu  0.02899722  0.65767990  0.13731113     0.43900
N1593       N  0.06955300  0.65619114  0.14543769    -0.34700
N1594       N  0.05179988  0.64700145  0.13790934    -0.29000
C1595       C  0.05218362  0.63128891  0.13060638    -0.05100
C1596       C  0.07112107  0.63047498  0.13367751     0.07100
C1597       C  0.08183906  0.64677138  0.14303359     0.00900
H1598       H  0.03981994  0.62153854  0.12336941     0.08600
H1599       H  0.09793497  0.65226602  0.14735041     0.07700
N1600       N  0.00889746  0.67156062  0.13838422    -0.36200
N1601       N  0.01259219  0.68812455  0.14615618    -0.28400
C1602       C  0.99614353  0.69262792  0.14462646    -0.03600
C1603       C  0.98155811  0.67850296  0.13526096     0.05000
C1604       C  0.99014441  0.66526187  0.13164133     0.03100
H1605       H  0.99475626  0.70496822  0.15017141     0.08200
H1606       H  0.98329099  0.65201151  0.12456198     0.07000
N1607       N  0.81973331  0.68443536  0.10485369    -0.27400
N1608       N  0.80698661  0.67711548  0.09446862    -0.35200
C1609       C  0.78940490  0.67978795  0.09604989     0.01000
C1610       C  0.79108837  0.68948074  0.10793676     0.07000
C1611       C  0.81043015  0.69193663  0.11333355    -0.06100
H1612       H  0.77574373  0.67392126  0.08928739     0.07700
H1613       H  0.81694802  0.69818360  0.12284892     0.08900
Cu1614     Cu  0.81195947  0.66149620  0.07893518     0.44200
Cu1615     Cu  0.84811327  0.68203279  0.10733560     0.42000
Cu1616     Cu  0.85686853  0.65163263  0.08146429     0.43900
N1617       N  0.81792978  0.64361124  0.06520548    -0.34700
N1618       N  0.83482727  0.64021775  0.06605654    -0.29000
C1619       C  0.83430396  0.62795535  0.05592077    -0.05100
C1620       C  0.81582367  0.62289490  0.04840937     0.07100
C1621       C  0.80603191  0.63340122  0.05457383     0.00900
H1622       H  0.84675279  0.62346382  0.05412073     0.08600
H1623       H  0.79112077  0.63334394  0.05165231     0.07700
N1624       N  0.87598177  0.66287475  0.09810095    -0.36200
N1625       N  0.87335951  0.67437089  0.10735909    -0.28400
C1626       C  0.88889446  0.67922591  0.11651412    -0.03600
C1627       C  0.90152844  0.66994510  0.11294145     0.05000
C1628       C  0.89297674  0.65989099  0.10118726     0.03100
H1629       H  0.89072480  0.68861720  0.12518267     0.08200
H1630       H  0.89894143  0.65136662  0.09517690     0.07000
O1631       O  0.19328589  0.85279889  0.22874936    -0.73000
O1632       O  0.15148144  0.81030216  0.25569888    -0.74000
O1633       O  0.19358474  0.85064783  0.25605239    -0.62600
O1634       O  0.15079854  0.81212967  0.22827264    -0.71000
O1635       O  0.16812725  0.79295734  0.22730972    -0.70600
O1636       O  0.21075377  0.83144462  0.25478012    -0.61800
O1637       O  0.16881545  0.79125010  0.25463943    -0.74300
O1638       O  0.20998713  0.83303378  0.22743845    -0.73100
Cu1639     Cu  0.17166374  0.83214104  0.24222111     1.04600
Cu1640     Cu  0.18997650  0.81149554  0.24100357     1.04300
C1641       C  0.20827409  0.84961915  0.22389156     0.93200
C1642       C  0.15364175  0.79408022  0.25951755     0.92300
C1643       C  0.20901570  0.84718576  0.25979395     0.84500
C1644       C  0.15282006  0.79643555  0.22339191     0.90700
C1645       C  0.14766825  0.77699967  0.20269862    -0.09200
C1646       C  0.13805776  0.78245428  0.21283511     0.07000
C1647       C  0.11485039  0.77399062  0.21270219    -0.03000
C1648       C  0.10170192  0.75966866  0.20274989    -0.07400
C1649       C  0.11128213  0.75361435  0.19281977     0.06100
C1650       C  0.13467055  0.76303964  0.19268017    -0.02500
Br1651     Br  0.15036051  0.75903427  0.17873593    -0.02200
H1652       H  0.16556360  0.78390072  0.20248408     0.10000
H1653       H  0.08380515  0.75267157  0.20301097     0.08000
Br1654     Br  0.09996936  0.77994260  0.22628760    -0.02600
C1655       C  0.94270816  0.65557505  0.12713114    -0.09200
C1656       C  0.96072330  0.67679479  0.13036169     0.07000
C1657       C  0.95851560  0.69563815  0.12838161    -0.03000
C1658       C  0.93872101  0.69291069  0.12319520    -0.07400
C1659       C  0.92110236  0.67176924  0.11962378     0.06100
C1660       C  0.92308740  0.65294124  0.12181385    -0.02500
Br1661     Br  0.89918887  0.62312932  0.11827776    -0.02200
H1662       H  0.94383858  0.64085655  0.12876737     0.10000
H1663       H  0.93746314  0.70752477  0.12140720     0.08000
Br1664     Br  0.98240578  0.72572850  0.13120700    -0.02600
C1665       C  0.76852217  0.68737604  0.12711346    -0.09200
C1666       C  0.77402721  0.69312647  0.11410498     0.07000
C1667       C  0.76201680  0.70082755  0.10700986    -0.03000
C1668       C  0.74396436  0.70110495  0.11265968    -0.07400
C1669       C  0.73795887  0.69452899  0.12547426     0.06100
C1670       C  0.75067942  0.68807675  0.13282371    -0.02500
Br1671     Br  0.74315201  0.67824695  0.15031955    -0.02200
H1672       H  0.77751711  0.68143207  0.13272549     0.10000
H1673       H  0.73456718  0.70655892  0.10701892     0.08000
Br1674     Br  0.77015418  0.71240983  0.08984002    -0.02600
C1675       C  0.52903663  0.58268480  0.11083951    -0.09200
C1676       C  0.51346864  0.58967831  0.11046644     0.07000
C1677       C  0.51857758  0.60972465  0.11662278    -0.03000
C1678       C  0.53910330  0.62257505  0.12283692    -0.07400
C1679       C  0.55510894  0.61604037  0.12295947     0.06100
C1680       C  0.54972690  0.59561805  0.11698258    -0.02500
Br1681     Br  0.56920588  0.58378495  0.11722179    -0.02200
H1682       H  0.52519984  0.56726156  0.10612773     0.10000
H1683       H  0.54278106  0.63814555  0.12727336     0.08000
Br1684     Br  0.49826486  0.62056741  0.11647958    -0.02600
C1685       C  0.35272165  0.51271161  0.06950679    -0.09200
C1686       C  0.37176036  0.51713463  0.06254576     0.07000
C1687       C  0.36978685  0.51219269  0.04928959    -0.03000
C1688       C  0.34904615  0.50336258  0.04318528    -0.07400
C1689       C  0.33000722  0.49927444  0.05010295     0.06100
C1690       C  0.33193387  0.50357399  0.06349651    -0.02500
Br1691     Br  0.30678806  0.49582324  0.07444055    -0.02200
H1692       H  0.35403349  0.51614675  0.07974411     0.10000
H1693       H  0.34790191  0.50006702  0.03293951     0.08000
Br1694     Br  0.39491397  0.51706213  0.03918328    -0.02600
C1695       C  0.46347154  0.81563742  0.06257223    -0.09200
C1696       C  0.47352337  0.83815766  0.05917226     0.07000
C1697       C  0.48846740  0.84627421  0.04874385    -0.03000
C1698       C  0.49341335  0.83188168  0.04204680    -0.07400
C1699       C  0.48303803  0.80907212  0.04526941     0.06100
C1700       C  0.46736979  0.80094719  0.05550469    -0.02500
Br1701     Br  0.44810072  0.76987889  0.05945095    -0.02200
H1702       H  0.45134515  0.80916993  0.07031332     0.10000
H1703       H  0.50531060  0.83860519  0.03421920     0.08000
Br1704     Br  0.50181059  0.87663150  0.04308466    -0.02600
C1705       C  0.48800188  0.65652193  0.05592092    -0.09200
C1706       C  0.48653899  0.65528777  0.04241876     0.07000
C1707       C  0.47889164  0.63441023  0.03640099    -0.03000
C1708       C  0.47306161  0.61551824  0.04392221    -0.07400
C1709       C  0.47399161  0.61681316  0.05741436     0.06100
C1710       C  0.48150424  0.63757702  0.06340284    -0.02500
Br1711     Br  0.48167288  0.64081137  0.08177640    -0.02200
H1712       H  0.49377237  0.67229256  0.06077352     0.10000
H1713       H  0.46682102  0.59949993  0.03926000     0.08000
Br1714     Br  0.47346858  0.62978908  0.01823967    -0.02600
C1715       C  0.10122365  0.59893223  0.12629441    -0.09200
C1716       C  0.09678732  0.59468654  0.11311800     0.07000
C1717       C  0.08277570  0.60088254  0.10700803    -0.03000
C1718       C  0.07449867  0.61228985  0.11390257    -0.07400
C1719       C  0.07945595  0.61728604  0.12703261     0.06100
C1720       C  0.09239880  0.60976773  0.13333093    -0.02500
Br1721     Br  0.09712620  0.61185987  0.15160319    -0.02200
H1722       H  0.11143436  0.59357735  0.13114039     0.10000
H1723       H  0.06434334  0.61749856  0.10887117     0.08000
Br1724     Br  0.07401546  0.59358504  0.08933021    -0.02600
C1725       C  0.14402687  0.50069463  0.05382057    -0.09200
C1726       C  0.15620532  0.52249144  0.05875514     0.07000
C1727       C  0.17944690  0.53510960  0.05679400    -0.03000
C1728       C  0.19005284  0.52593720  0.04998410    -0.07400
C1729       C  0.17810968  0.50391297  0.04535483     0.06100
C1730       C  0.15480532  0.49116266  0.04740066    -0.02500
Br1731     Br  0.13719728  0.46002851  0.04320513    -0.02200
H1732       H  0.12620667  0.49072588  0.05551053     0.10000
H1733       H  0.20794698  0.53597553  0.04861126     0.08000
Br1734     Br  0.19783407  0.56433665  0.06407893    -0.02600
C1735       C  0.37911961  0.85172961  0.04325836    -0.09200
C1736       C  0.37878891  0.84757372  0.05648514     0.07000
C1737       C  0.35879810  0.83128911  0.06230080    -0.03000
C1738       C  0.33959797  0.81931474  0.05485561    -0.07400
C1739       C  0.33990022  0.82293602  0.04152673     0.06100
C1740       C  0.35993870  0.83946105  0.03572452    -0.02500
Br1741     Br  0.36301881  0.84443075  0.01749468    -0.02200
H1742       H  0.39461872  0.86392898  0.03870829     0.10000
H1743       H  0.32441971  0.80671853  0.05950583     0.08000
Br1744     Br  0.35724838  0.82371084  0.08019864    -0.02600
C1745       C  0.18714584  0.63224179  0.05652836    -0.09200
C1746       C  0.16451187  0.62433613  0.05888193     0.07000
C1747       C  0.15442687  0.63519203  0.05304215    -0.03000
C1748       C  0.16719617  0.65410547  0.04537646    -0.07400
C1749       C  0.19003400  0.66240536  0.04325593     0.06100
C1750       C  0.19986196  0.65087917  0.04870782    -0.02500
Br1751     Br  0.22991140  0.65830143  0.04507770    -0.02200
H1752       H  0.19488430  0.62360020  0.06067142     0.10000
H1753       H  0.15925748  0.66249755  0.04117949     0.08000
Br1754     Br  0.12316362  0.62437694  0.05492988    -0.02600
C1755       C  0.25128979  0.90222465  0.20652055    -0.09200
C1756       C  0.25374251  0.89339951  0.19489927     0.07000
C1757       C  0.24052577  0.87016607  0.19276009    -0.03000
C1758       C  0.22586335  0.85622970  0.20232898    -0.07400
C1759       C  0.22367355  0.86502617  0.21400110     0.06100
C1760       C  0.23649298  0.88825539  0.21605831    -0.02500
Br1761     Br  0.23575673  0.90145330  0.23212047    -0.02200
H1762       H  0.26142440  0.91998695  0.20835624     0.10000
H1763       H  0.21583962  0.83842846  0.20056822     0.08000
Br1764     Br  0.24052645  0.85664597  0.17665805    -0.02600
C1765       C  0.31584678  0.04946587  0.13492571    -0.09200
C1766       C  0.33527061  0.04816127  0.13552447     0.07000
C1767       C  0.35553233  0.06624623  0.13081268    -0.03000
C1768       C  0.35567260  0.08433004  0.12492799    -0.07400
C1769       C  0.33613380  0.08524715  0.12404001     0.06100
C1770       C  0.31617701  0.06785058  0.12930123    -0.02500
Br1771     Br  0.28863450  0.06765389  0.12819913    -0.02200
H1772       H  0.30015048  0.03581611  0.13847129     0.10000
H1773       H  0.37122876  0.09796994  0.12120336     0.08000
Br1774     Br  0.38389206  0.06831717  0.13292883    -0.02600
C1775       C  0.42077578  0.93254872  0.11474507    -0.09200
C1776       C  0.41051320  0.90972448  0.11193184     0.07000
C1777       C  0.38933147  0.89484851  0.11716024    -0.03000
C1778       C  0.37823177  0.90304096  0.12444035    -0.07400
C1779       C  0.38805321  0.92599208  0.12685733     0.06100
C1780       C  0.40990508  0.94072976  0.12230213    -0.02500
Br1781     Br  0.42648525  0.97176659  0.12688612    -0.02200
H1782       H  0.43734311  0.94401061  0.11107060     0.10000
H1783       H  0.36165255  0.89140521  0.12802346     0.08000
Br1784     Br  0.37501024  0.86317406  0.11471431    -0.02600
C1785       C  0.35719265  0.26255413  0.13262014    -0.09200
C1786       C  0.33726393  0.24302564  0.12939619     0.07000
C1787       C  0.31682445  0.24045419  0.13344267    -0.03000
C1788       C  0.31656122  0.25775038  0.14017622    -0.07400
C1789       C  0.33651785  0.27768780  0.14310731     0.06100
C1790       C  0.35704073  0.27960480  0.13962076    -0.02500
Br1791     Br  0.38550529  0.30409222  0.14492978    -0.02200
H1792       H  0.37302407  0.26438624  0.12985025     0.10000
H1793       H  0.30064302  0.25585002  0.14276842     0.08000
Br1794     Br  0.28885612  0.21426764  0.12924178    -0.02600
C1795       C  0.39665290  0.44944228  0.12191135    -0.09200
C1796       C  0.38892177  0.45200647  0.13394366     0.07000
C1797       C  0.39322174  0.47349684  0.13740847    -0.03000
C1798       C  0.40343976  0.49114730  0.12857280    -0.07400
C1799       C  0.41084946  0.48833864  0.11654622     0.06100
C1800       C  0.40790416  0.46736185  0.11341907    -0.02500
Br1801     Br  0.41870716  0.46219984  0.09756824    -0.02200
H1802       H  0.39384186  0.43334029  0.11894098     0.10000
H1803       H  0.40603208  0.50734117  0.13119326     0.08000
Br1804     Br  0.38776626  0.48075240  0.15431195    -0.02600
C1805       C  0.74046212  0.06297205  0.11935148    -0.09200
C1806       C  0.75778457  0.07979118  0.12675478     0.07000
C1807       C  0.75815696  0.07630228  0.14016380    -0.03000
C1808       C  0.74098670  0.05671623  0.14582532    -0.07400
C1809       C  0.72321067  0.04056626  0.13842438     0.06100
C1810       C  0.72336596  0.04356683  0.12501291    -0.02500
Br1811     Br  0.70126930  0.02131746  0.11379056    -0.02200
H1812       H  0.74013457  0.06489357  0.10902381     0.10000
H1813       H  0.74104294  0.05449419  0.15614476     0.08000
Br1814     Br  0.78019966  0.09808265  0.15157185    -0.02600
C1815       C  0.52867661  0.90196799  0.13191504    -0.09200
C1816       C  0.54865992  0.92107208  0.12795659     0.07000
C1817       C  0.54829078  0.93242447  0.11672888    -0.03000
C1818       C  0.52832201  0.92483437  0.11000822    -0.07400
C1819       C  0.50871150  0.90545237  0.11377926     0.06100
C1820       C  0.50893612  0.89393431  0.12483089    -0.02500
Br1821     Br  0.48303323  0.86659095  0.13019657    -0.02200
H1822       H  0.52846025  0.89289221  0.14041797     0.10000
H1823       H  0.52834465  0.93337056  0.10128890     0.08000
Br1824     Br  0.57446483  0.95637283  0.10875370    -0.02600
C1825       C  0.96188848  0.26531750  0.11434922    -0.09200
C1826       C  0.96396259  0.26793486  0.12777074     0.07000
C1827       C  0.94641530  0.25217509  0.13561952    -0.03000
C1828       C  0.92681344  0.23513693  0.12996116    -0.07400
C1829       C  0.92432730  0.23317408  0.11652382     0.06100
C1830       C  0.94254742  0.24790723  0.10870617    -0.02500
Br1831     Br  0.94274370  0.24425698  0.09038921    -0.02200
H1832       H  0.97550592  0.27683241  0.10819871     0.10000
H1833       H  0.91310244  0.22390585  0.13614026     0.08000
Br1834     Br  0.94722656  0.25392617  0.15405661    -0.02600
C1835       C  0.09474868  0.46792470  0.13085565    -0.09200
C1836       C  0.07294794  0.45044530  0.12805050     0.07000
C1837       C  0.06011503  0.45452033  0.11909362    -0.03000
C1838       C  0.06984854  0.47482405  0.11242598    -0.07400
C1839       C  0.09193357  0.49168027  0.11483712     0.06100
C1840       C  0.10412498  0.48842143  0.12447110    -0.02500
Br1841     Br  0.13401645  0.51121869  0.12880693    -0.02200
H1842       H  0.10494762  0.46553128  0.13775736     0.10000
H1843       H  0.06018225  0.47745962  0.10523576     0.08000
Br1844     Br  0.02896505  0.43404662  0.11596268    -0.02600
C1845       C  0.64087045  0.77460283  0.20253782    -0.09200
C1846       C  0.65432640  0.77778812  0.21330794     0.07000
C1847       C  0.66795422  0.76832187  0.21333961    -0.03000
C1848       C  0.66755539  0.75554043  0.20280198    -0.07400
C1849       C  0.65370094  0.75193127  0.19212339     0.06100
C1850       C  0.64064256  0.76207995  0.19195358    -0.02500
Br1851     Br  0.62348803  0.76100341  0.17723002    -0.02200
H1852       H  0.63073718  0.78226912  0.20225801     0.10000
H1853       H  0.67766713  0.74786476  0.20312068     0.08000
Br1854     Br  0.68606303  0.77091116  0.22789427    -0.02600
C1855       C  0.66510484  0.89215871  0.20300603    -0.09200
C1856       C  0.64982884  0.88182561  0.19285454     0.07000
C1857       C  0.63589998  0.85830078  0.19298380    -0.03000
C1858       C  0.63640519  0.84605112  0.20351222    -0.07400
C1859       C  0.65132935  0.85653047  0.21374809     0.06100
C1860       C  0.66619334  0.87977763  0.21325536    -0.02500
Br1861     Br  0.68765037  0.89585946  0.22653094    -0.02200
H1862       H  0.67605286  0.91010302  0.20318313     0.10000
H1863       H  0.62553913  0.82806066  0.20349920     0.08000
Br1864     Br  0.61739662  0.84138987  0.17873066    -0.02600
C1865       C  0.09811198  0.33291255  0.20422626    -0.09200
C1866       C  0.10748762  0.35083189  0.19548675     0.07000
C1867       C  0.13044104  0.36705024  0.19662780    -0.03000
C1868       C  0.14322270  0.36521040  0.20640532    -0.07400
C1869       C  0.13379003  0.34743146  0.21521269     0.06100
C1870       C  0.11089496  0.33119528  0.21407336    -0.02500
Br1871     Br  0.09557011  0.30742408  0.22628494    -0.02200
H1872       H  0.08050168  0.32046527  0.20365762     0.10000
H1873       H  0.16081208  0.37773181  0.20704424     0.08000
Br1874     Br  0.14598894  0.39145222  0.18482309    -0.02600
C1875       C  0.24404212  0.36221927  0.19970654    -0.09200
C1876       C  0.25272268  0.34828644  0.20219793     0.07000
C1877       C  0.24403372  0.33340547  0.21275642    -0.03000
C1878       C  0.22717919  0.33279549  0.22042679    -0.07400
C1879       C  0.21894603  0.34706910  0.21802555     0.06100
C1880       C  0.22742268  0.36176299  0.20747781    -0.02500
Br1881     Br  0.21609554  0.38074323  0.20282235    -0.02200
H1882       H  0.25007185  0.37349406  0.19156547     0.10000
H1883       H  0.22103352  0.32164463  0.22863404     0.08000
Br1884     Br  0.25555323  0.31490950  0.21809055    -0.02600
C1885       C  0.12189438  0.74432541  0.28218173    -0.09200
C1886       C  0.11109905  0.75190184  0.29033241     0.07000
C1887       C  0.11438791  0.77336639  0.28822195    -0.03000
C1888       C  0.12797814  0.78652391  0.27805936    -0.07400
C1889       C  0.13880695  0.77896156  0.26986985     0.06100
C1890       C  0.13552606  0.75744867  0.27204565    -0.02500
Br1891     Br  0.14812486  0.74418283  0.26136643    -0.02200
H1892       H  0.11942531  0.72781955  0.28355943     0.10000
H1893       H  0.13049531  0.80306482  0.27676656     0.08000
Br1894     Br  0.10243597  0.78656293  0.29942080    -0.02600
C1895       C  0.94036732  0.65156463  0.35500436    -0.09200
C1896       C  0.95750086  0.67312172  0.35157022     0.07000
C1897       C  0.95422994  0.69126767  0.35368603    -0.03000
C1898       C  0.93412868  0.68747982  0.35904545    -0.07400
C1899       C  0.91742168  0.66599813  0.36282653     0.06100
C1900       C  0.92064818  0.64790692  0.36069540    -0.02500
Br1901     Br  0.89859711  0.61767344  0.36500142    -0.02200
H1902       H  0.94235230  0.63735169  0.35335446     0.10000
H1903       H  0.93197810  0.70155941  0.36085232     0.08000
Br1904     Br  0.97718589  0.72177225  0.35096276    -0.02600
C1905       C  0.66883911  0.76591104  0.28871394    -0.09200
C1906       C  0.64903737  0.74550533  0.29085813     0.07000
C1907       C  0.63057201  0.73947483  0.28274499    -0.03000
C1908       C  0.63198069  0.75407768  0.27307573    -0.07400
C1909       C  0.65166557  0.77471723  0.27100828     0.06100
C1910       C  0.67038426  0.78047830  0.27895600    -0.02500
Br1911     Br  0.69848506  0.80803089  0.27753887    -0.02200
H1912       H  0.68320126  0.77077342  0.29482589     0.10000
H1913       H  0.61756360  0.74897617  0.26697309     0.08000
Br1914     Br  0.60355816  0.71085805  0.28348987    -0.02600
C1915       C  0.73279896  0.68228974  0.36729396    -0.09200
C1916       C  0.73024222  0.67941242  0.35393323     0.07000
C1917       C  0.74588687  0.67677315  0.34681114    -0.03000
C1918       C  0.76306748  0.67583949  0.35320462    -0.07400
C1919       C  0.76517743  0.67784457  0.36668071     0.06100
C1920       C  0.75030585  0.68203183  0.37366495    -0.02500
Br1921     Br  0.75374117  0.68916862  0.39169217    -0.02200
H1922       H  0.72118382  0.68497257  0.37280010     0.10000
H1923       H  0.77433084  0.67275584  0.34763141     0.08000
Br1924     Br  0.74352095  0.67269225  0.32849711    -0.02600
C1925       C  0.52861942  0.58917629  0.37936622    -0.09200
C1926       C  0.50996904  0.58967370  0.37487271     0.07000
C1927       C  0.51214302  0.60258056  0.36399382    -0.03000
C1928       C  0.53270640  0.61452950  0.35771848    -0.07400
C1929       C  0.55184117  0.61487762  0.36241108     0.06100
C1930       C  0.54953207  0.60196731  0.37351299    -0.02500
Br1931     Br  0.57392781  0.60255402  0.38242427    -0.02200
H1932       H  0.52710668  0.57969256  0.38795835     0.10000
H1933       H  0.53371023  0.62404102  0.34926296     0.08000
Br1934     Br  0.48781656  0.60543667  0.35779848    -0.02600
C1935       C  0.33261593  0.51343545  0.42594724    -0.09200
C1936       C  0.32731099  0.49789731  0.43594061     0.07000
C1937       C  0.34292272  0.49152064  0.43925657    -0.03000
C1938       C  0.36371893  0.50163835  0.43315184    -0.07400
C1939       C  0.36895338  0.51730167  0.42332818     0.06100
C1940       C  0.35302831  0.52280694  0.41951713    -0.02500
Br1941     Br  0.35836356  0.54286806  0.40549353    -0.02200
H1942       H  0.32091065  0.51847069  0.42311236     0.10000
H1943       H  0.37569052  0.49683926  0.43582468     0.08000
Br1944     Br  0.33635340  0.46767539  0.45098398    -0.02600
C1945       C  0.09655083  0.59644949  0.35919679    -0.09200
C1946       C  0.09092118  0.59187038  0.37224439     0.07000
C1947       C  0.07698911  0.59857505  0.37792364    -0.03000
C1948       C  0.06984567  0.61066602  0.37073051    -0.07400
C1949       C  0.07615273  0.61610708  0.35778114     0.06100
C1950       C  0.08915557  0.60830064  0.35190901    -0.02500
Br1951     Br  0.09616362  0.61188874  0.33388186    -0.02200
H1952       H  0.10685723  0.59087358  0.35469621     0.10000
H1953       H  0.05966076  0.61621846  0.37539925     0.08000
Br1954     Br  0.06729746  0.59154453  0.39547706    -0.02600
C1955       C  0.14898664  0.62230264  0.43752421    -0.09200
C1956       C  0.15916287  0.62042237  0.42635832     0.07000
C1957       C  0.18120883  0.63705613  0.42350427    -0.03000
C1958       C  0.19256249  0.65552868  0.43159769    -0.07400
C1959       C  0.18259876  0.65760218  0.44289243     0.06100
C1960       C  0.16057503  0.64041477  0.44592327    -0.02500
Br1961     Br  0.14589918  0.63907394  0.46181067    -0.02200
H1962       H  0.13217598  0.60919599  0.43991546     0.10000
H1963       H  0.20934732  0.66831231  0.42897121     0.08000
Br1964     Br  0.19665021  0.63491067  0.40879495    -0.02600
C1965       C  0.17817934  0.53078703  0.42305721    -0.09200
C1966       C  0.15484315  0.51965662  0.42315548     0.07000
C1967       C  0.14267618  0.49987017  0.43032390    -0.03000
C1968       C  0.15398535  0.49121590  0.43703834    -0.07400
C1969       C  0.17737666  0.50198579  0.43661048     0.06100
C1970       C  0.18951136  0.52221816  0.42972399    -0.02500
Br1971     Br  0.22154597  0.53977300  0.42968543    -0.02200
H1972       H  0.18761401  0.54628839  0.41777741     0.10000
H1973       H  0.14447514  0.47578319  0.44236189     0.08000
Br1974     Br  0.11071230  0.48435292  0.43120087    -0.02600
C1975       C  0.47949849  0.65811731  0.42956494    -0.09200
C1976       C  0.48583083  0.65867591  0.44248201     0.07000
C1977       C  0.48368018  0.63908951  0.44794147    -0.03000
C1978       C  0.47570499  0.61976311  0.44042309    -0.07400
C1979       C  0.46959760  0.61945828  0.42753373     0.06100
C1980       C  0.47137936  0.63877783  0.42214509    -0.02500
Br1981     Br  0.46240650  0.63928900  0.40474969    -0.02200
H1982       H  0.48089915  0.67284052  0.42515337     0.10000
H1983       H  0.47401513  0.60479977  0.44467754     0.08000
Br1984     Br  0.48953452  0.63687710  0.46575999    -0.02600
C1985       C  0.48379696  0.84505672  0.44155945    -0.09200
C1986       C  0.47740248  0.83917865  0.42869534     0.07000
C1987       C  0.47916828  0.82184811  0.42305369    -0.03000
C1988       C  0.48697996  0.81048905  0.43033963    -0.07400
C1989       C  0.49283434  0.81582307  0.44335047     0.06100
C1990       C  0.49137268  0.83349001  0.44895134    -0.02500
Br1991     Br  0.49707964  0.84119305  0.46684251    -0.02200
H1992       H  0.48207180  0.85815766  0.44598447     0.10000
H1993       H  0.48805481  0.79706876  0.42583813     0.08000
Br1994     Br  0.46979419  0.81217018  0.40568844    -0.02600
C1995       C  0.37636687  0.84031418  0.44630627    -0.09200
C1996       C  0.37586936  0.83516421  0.43321900     0.07000
C1997       C  0.35625382  0.81737232  0.42790507    -0.03000
C1998       C  0.33755480  0.80496611  0.43568657    -0.07400
C1999       C  0.33793128  0.80989723  0.44883841     0.06100
C2000       C  0.35761786  0.82786650  0.45414438    -0.02500
Br2001     Br  0.36065760  0.83513773  0.47212062    -0.02200
H2002       H  0.39155530  0.85381355  0.45047177     0.10000
H2003       H  0.32261628  0.79132728  0.43139877     0.08000
Br2004     Br  0.35448230  0.80890392  0.41016960    -0.02600
C2005       C  0.25934172  0.87667481  0.28220270    -0.09200
C2006       C  0.25285805  0.88842870  0.29031072     0.07000
C2007       C  0.23186362  0.88634231  0.28838628    -0.03000
C2008       C  0.21805148  0.87296463  0.27837890    -0.07400
C2009       C  0.22457679  0.86130660  0.27014715     0.06100
C2010       C  0.24561474  0.86334833  0.27216683    -0.02500
Br2011     Br  0.25753573  0.84960660  0.26133913    -0.02200
H2012       H  0.27550380  0.87826180  0.28349310     0.10000
H2013       H  0.20188513  0.87140112  0.27718684     0.08000
Br2014     Br  0.22028225  0.89989945  0.29959094    -0.02600
C2015       C  0.32357238  0.07025156  0.35234902    -0.09200
C2016       C  0.34497354  0.08643894  0.35657727     0.07000
C2017       C  0.36248939  0.08196884  0.35565500    -0.03000
C2018       C  0.35816012  0.06129373  0.35109556    -0.07400
C2019       C  0.33658617  0.04471328  0.34736099     0.06100
C2020       C  0.31917611  0.04941298  0.34791195    -0.02500
Br2021     Br  0.28865056  0.02742691  0.34427097    -0.02200
H2022       H  0.30992271  0.07336892  0.35315270     0.10000
H2023       H  0.37178505  0.05809982  0.35054418     0.08000
Br2024     Br  0.39285052  0.10355803  0.36002586    -0.02600
C2025       C  0.39657192  0.93035876  0.37036222    -0.09200
C2026       C  0.37586774  0.91406074  0.36518159     0.07000
C2027       C  0.36837154  0.89126212  0.36738624    -0.03000
C2028       C  0.38167700  0.88535932  0.37436135    -0.07400
C2029       C  0.40213758  0.90167529  0.37956395     0.06100
C2030       C  0.40959348  0.92434335  0.37757169    -0.02500
Br2031     Br  0.43701499  0.94753845  0.38489585    -0.02200
H2032       H  0.40271078  0.94792075  0.36884186     0.10000
H2033       H  0.37573297  0.86787159  0.37609538     0.08000
Br2034     Br  0.33944113  0.86718358  0.36244565    -0.02600
C2035       C  0.24684362  0.36500374  0.28748682    -0.09200
C2036       C  0.25211341  0.34814361  0.28639039     0.07000
C2037       C  0.23968654  0.33045094  0.27765776    -0.03000
C2038       C  0.22248853  0.32994689  0.27040726    -0.07400
C2039       C  0.21751109  0.34702729  0.27136131     0.06100
C2040       C  0.22991864  0.36468106  0.28009255    -0.02500
Br2041     Br  0.22437574  0.38862072  0.28278356    -0.02200
H2042       H  0.25586039  0.37857648  0.29423260     0.10000
H2043       H  0.21358603  0.31654713  0.26353296     0.08000
Br2044     Br  0.24647082  0.30756684  0.27410039    -0.02600
C2045       C  0.35388023  0.26066938  0.35456634    -0.09200
C2046       C  0.33533982  0.24000122  0.35791935     0.07000
C2047       C  0.31372970  0.23598942  0.35539943    -0.03000
C2048       C  0.31103540  0.25292724  0.35002749    -0.07400
C2049       C  0.32965285  0.27393890  0.34712592     0.06100
C2050       C  0.35125346  0.27744976  0.34907693    -0.02500
Br2051     Br  0.37787710  0.30425725  0.34378531    -0.02200
H2052       H  0.37057418  0.26375811  0.35619498     0.10000
H2053       H  0.29435128  0.24995642  0.34857177     0.08000
Br2054     Br  0.28747357  0.20845878  0.36012474    -0.02600
C2055       C  0.41725433  0.47528756  0.36825599    -0.09200
C2056       C  0.40773606  0.48853744  0.37011923     0.07000
C2057       C  0.38798358  0.48318697  0.36346110    -0.03000
C2058       C  0.37772439  0.46439522  0.35545466    -0.07400
C2059       C  0.38676024  0.45058675  0.35396348     0.06100
C2060       C  0.40705556  0.45652699  0.36023283    -0.02500
Br2061     Br  0.42233124  0.44045215  0.35778644    -0.02200
H2062       H  0.43261063  0.47947278  0.37317797     0.10000
H2063       H  0.36223088  0.46018319  0.35069941     0.08000
Br2064     Br  0.37418918  0.50081740  0.36519581    -0.02600
C2065       C  0.66020689  0.88895028  0.28373886    -0.09200
C2066       C  0.64227834  0.87820916  0.29243672     0.07000
C2067       C  0.62712938  0.85503863  0.29081320    -0.03000
C2068       C  0.62953433  0.84369361  0.28037971    -0.07400
C2069       C  0.64733905  0.85453652  0.27165399     0.06100
C2070       C  0.66302377  0.87739410  0.27358886    -0.02500
Br2071     Br  0.68823792  0.89423997  0.26252372    -0.02200
H2072       H  0.67209584  0.90663734  0.28467109     0.10000
H2073       H  0.61771886  0.82598113  0.27932541     0.08000
Br2074     Br  0.60403145  0.83703495  0.30294231    -0.02600
C2075       C  0.72489661  0.05371796  0.34285020    -0.09200
C2076       C  0.71477888  0.03395989  0.35003816     0.07000
C2077       C  0.72179537  0.03419307  0.36274874    -0.03000
C2078       C  0.73858529  0.05415586  0.36815949    -0.07400
C2079       C  0.74871799  0.07407182  0.36103580     0.06100
C2080       C  0.74174679  0.07373664  0.34821875    -0.02500
Br2081     Br  0.75286954  0.10021699  0.33794571    -0.02200
H2082       H  0.71922702  0.05368174  0.33313484     0.10000
H2083       H  0.74371520  0.05412987  0.37799993     0.08000
Br2084     Br  0.70866195  0.00771875  0.37311365    -0.02600
C2085       C  0.54103368  0.92959272  0.36702734    -0.09200
C2086       C  0.53869373  0.91724049  0.35580958     0.07000
C2087       C  0.51752848  0.89843125  0.35296994    -0.03000
C2088       C  0.50004106  0.89131460  0.36181827    -0.07400
C2089       C  0.50280953  0.90326351  0.37320186     0.06100
C2090       C  0.52326706  0.92296468  0.37555872    -0.02500
Br2091     Br  0.52787703  0.94094657  0.39054117     0.12200
H2092       H  0.55690606  0.94419969  0.36943571     0.10000
H2093       H  0.48410566  0.87645194  0.35978023     0.08000
Br2094     Br  0.51065638  0.88268229  0.33689326    -0.02600
C2095       C  0.12097269  0.36055414  0.28969433    -0.09200
C2096       C  0.09794612  0.34658353  0.28754213     0.07000
C2097       C  0.09087211  0.33200110  0.27682343    -0.03000
C2098       C  0.10674711  0.33160717  0.26868961    -0.07400
C2099       C  0.12973318  0.34595245  0.27075978     0.06100
C2100       C  0.13674204  0.36043607  0.28143926    -0.02500
Br2101     Br  0.16763026  0.37980157  0.28561008    -0.02200
H2102       H  0.12684911  0.37167273  0.29791598     0.10000
H2103       H  0.10108477  0.32064196  0.26039100     0.08000
Br2104     Br  0.06009624  0.31387234  0.27190835    -0.02600
C2105       C  0.92407972  0.27774801  0.34805965    -0.09200
C2106       C  0.94149516  0.27366032  0.34565228     0.07000
C2107       C  0.93809027  0.25229238  0.34839208    -0.03000
C2108       C  0.91769739  0.23575101  0.35355993    -0.07400
C2109       C  0.90070909  0.24021731  0.35635109     0.06100
C2110       C  0.90386052  0.26130336  0.35335632    -0.02500
Br2111     Br  0.88080293  0.26824363  0.35582645    -0.02200
H2112       H  0.92620784  0.29389619  0.34584230     0.10000
H2113       H  0.91547064  0.21962281  0.35596709     0.08000
Br2114     Br  0.96113610  0.24517781  0.34668933    -0.02600
C2115       C  0.06115088  0.44839876  0.36784250    -0.09200
C2116       C  0.06661517  0.44994766  0.35471124     0.07000
C2117       C  0.08012896  0.47128002  0.34918922    -0.03000
C2118       C  0.08898135  0.49034455  0.35695895    -0.07400
C2119       C  0.08434897  0.48860236  0.37017776     0.06100
C2120       C  0.06981496  0.46746661  0.37555229    -0.02500
Br2121     Br  0.06156106  0.46383148  0.39340630    -0.02200
H2122       H  0.05057757  0.43223464  0.37224670     0.10000
H2123       H  0.09979548  0.50660671  0.35271387     0.08000
Br2124     Br  0.08610851  0.47565602  0.33106378    -0.02600
C2125       C  0.19810654  0.77188766  0.94246327    -0.09200
C2126       C  0.20277627  0.79378865  0.94060989     0.07000
C2127       C  0.21351039  0.80954995  0.95054130    -0.03000
C2128       C  0.21926031  0.80318035  0.96202683    -0.07400
C2129       C  0.21466476  0.78125385  0.96388395     0.06100
C2130       C  0.20423419  0.76560894  0.95382423    -0.02500
Br2131     Br  0.19994998  0.73616097  0.95426421    -0.02200
H2132       H  0.19030802  0.75972130  0.93481434     0.10000
H2133       H  0.22719162  0.81543502  0.96961653     0.08000
Br2134     Br  0.21964231  0.83962478  0.94930789    -0.02600
C2135       C  0.28304575  0.92352385  0.84538525    -0.09200
C2136       C  0.27959471  0.94156197  0.84396375     0.07000
C2137       C  0.25877449  0.93871382  0.84771499    -0.03000
C2138       C  0.24224762  0.91827785  0.85289207    -0.07400
C2139       C  0.24618673  0.90068472  0.85471582     0.06100
C2140       C  0.26665127  0.90330056  0.85070762    -0.02500
Br2141     Br  0.27280503  0.87952522  0.85187649    -0.02200
H2142       H  0.29867316  0.92514634  0.84237145     0.10000
H2143       H  0.22662670  0.91647909  0.85609559     0.08000
Br2144     Br  0.25242640  0.96242063  0.84742778    -0.02600
C2145       C  0.06068411  0.72402397  0.84134643    -0.09200
C2146       C  0.04428205  0.70762268  0.84930285     0.07000
C2147       C  0.04793098  0.70886632  0.86268206    -0.03000
C2148       C  0.06760316  0.72652173  0.86786514    -0.07400
C2149       C  0.08433733  0.74295476  0.85994440     0.06100
C2150       C  0.08078670  0.74125781  0.84644890    -0.02500
Br2151     Br  0.10317285  0.75993596  0.83415785    -0.02200
H2152       H  0.05822433  0.72286598  0.83101159     0.10000
H2153       H  0.06972196  0.72735582  0.87821179     0.08000
Br2154     Br  0.02628846  0.68741848  0.87440626    -0.02600
C2155       C  0.39465685  0.18772699  0.03323015    -0.09200
C2156       C  0.40169027  0.20253177  0.04370630     0.07000
C2157       C  0.42107619  0.22382754  0.04237378    -0.03000
C2158       C  0.43289423  0.22984218  0.03074565    -0.07400
C2159       C  0.42598266  0.21495423  0.02032402     0.06100
C2160       C  0.40643800  0.19381073  0.02158342    -0.02500
Br2161     Br  0.39399215  0.17326849  0.00746500    -0.02200
H2162       H  0.37962200  0.17146770  0.03401759     0.10000
H2163       H  0.44796540  0.24607324  0.02996249     0.08000
Br2164     Br  0.43345181  0.24481268  0.05630763    -0.02600
C2165       C  0.51963724  0.33827585  0.92966915    -0.09200
C2166       C  0.51676369  0.33893083  0.94304524     0.07000
C2167       C  0.51937752  0.35873393  0.94850074    -0.03000
C2168       C  0.52489371  0.37717778  0.94062530    -0.07400
C2169       C  0.52800567  0.37642987  0.92734865     0.06100
C2170       C  0.52526476  0.35675305  0.92186645    -0.02500
Br2171     Br  0.53003555  0.35472433  0.90384586    -0.02200
H2172       H  0.51765545  0.32333487  0.92521202     0.10000
H2173       H  0.52730239  0.39241351  0.94491850     0.08000
Br2174     Br  0.51772040  0.36270426  0.96665413    -0.02600
C2175       C  0.66605795  0.49419661  0.92170793    -0.09200
C2176       C  0.66734449  0.49789590  0.93507884     0.07000
C2177       C  0.64767915  0.49296120  0.94178519    -0.03000
C2178       C  0.62742571  0.48425398  0.93513046    -0.07400
C2179       C  0.62618332  0.48011356  0.92186162     0.06100
C2180       C  0.64577469  0.48534008  0.91511232    -0.02500
Br2181     Br  0.64545787  0.47944793  0.89703622    -0.02200
H2182       H  0.68087141  0.49782230  0.91635725     0.10000
H2183       H  0.61235872  0.48000671  0.94040654     0.08000
Br2184     Br  0.64651148  0.49538761  0.96012649    -0.02600
C2185       C  0.80308805  0.57969506  0.02208276    -0.09200
C2186       C  0.79300414  0.58604490  0.01265696     0.07000
C2187       C  0.79059158  0.60460409  0.01509144    -0.03000
C2188       C  0.79808900  0.61617839  0.02676996    -0.07400
C2189       C  0.80823315  0.60985409  0.03621484     0.06100
C2190       C  0.81053511  0.59119000  0.03375923    -0.02500
Br2191     Br  0.82197290  0.57907378  0.04608764    -0.02200
H2192       H  0.80477190  0.56528423  0.02048828     0.10000
H2193       H  0.79638404  0.63057751  0.02834291     0.08000
Br2194     Br  0.77885904  0.61618324  0.00260415    -0.02600
C2195       C  0.91701262  0.51492008  0.87461383    -0.09200
C2196       C  0.90123877  0.49433174  0.86929051     0.07000
C2197       C  0.89488668  0.49325474  0.85633892    -0.03000
C2198       C  0.90404977  0.51282846  0.84898809    -0.07400
C2199       C  0.91977815  0.53355517  0.85433815     0.06100
C2200       C  0.92626729  0.53445304  0.86731851    -0.02500
Br2201     Br  0.94594753  0.56183678  0.87615831    -0.02200
H2202       H  0.92171676  0.51583655  0.88463719     0.10000
H2203       H  0.89882685  0.51187892  0.83907198     0.08000
Br2204     Br  0.87327816  0.46555218  0.84852001    -0.02600
C2205       C  0.81649062  0.45385569  0.92869585    -0.09200
C2206       C  0.83909772  0.46778509  0.92559396     0.07000
C2207       C  0.85053130  0.49002874  0.93002541    -0.03000
C2208       C  0.83889453  0.49832566  0.93676782    -0.07400
C2209       C  0.81598093  0.48459249  0.93932999     0.06100
C2210       C  0.80501872  0.46193801  0.93566764    -0.02500
Br2211     Br  0.77489584  0.44083797  0.94072243    -0.02200
H2212       H  0.80775623  0.43651233  0.92572754     0.10000
H2213       H  0.84763965  0.51564738  0.93976088     0.08000
Br2214     Br  0.88198512  0.50940432  0.92727083    -0.02600
C2215       C  0.57401955  0.79629509  0.94169242    -0.09200
C2216       C  0.59072410  0.79097552  0.94004878     0.07000
C2217       C  0.59409614  0.77898822  0.94983104    -0.03000
C2218       C  0.58066435  0.77236304  0.96085239    -0.07400
C2219       C  0.56380000  0.77751644  0.96247969     0.06100
C2220       C  0.56050110  0.78958866  0.95267851    -0.02500
Br2221     Br  0.53684011  0.79600419  0.95300259    -0.02200
H2222       H  0.57105892  0.80527991  0.93420597     0.10000
H2223       H  0.58373445  0.76343683  0.96832073     0.08000
Br2224     Br  0.61773356  0.77254378  0.94925191    -0.02600
C2225       C  0.68559424  0.74024692  0.84705823    -0.09200
C2226       C  0.66625811  0.71909643  0.84577016     0.07000
C2227       C  0.64544928  0.71635484  0.84928015    -0.03000
C2228       C  0.64457177  0.73400148  0.85496764    -0.07400
C2229       C  0.66401337  0.75474388  0.85694185     0.06100
C2230       C  0.68462171  0.75806523  0.85256063    -0.02500
Br2231     Br  0.71214703  0.78579702  0.85488901    -0.02200
H2232       H  0.70167183  0.74269200  0.84430040     0.10000
H2233       H  0.62854567  0.73146915  0.85794230     0.08000
Br2234     Br  0.61747615  0.68946089  0.84599859    -0.02600
C2235       C  0.61399918  0.52711805  0.85392424    -0.09200
C2236       C  0.60505892  0.54093388  0.85212686     0.07000
C2237       C  0.58424619  0.53479587  0.85772301    -0.03000
C2238       C  0.57385474  0.51632959  0.86593273    -0.07400
C2239       C  0.58363907  0.50348643  0.86841198     0.06100
C2240       C  0.60337166  0.50841959  0.86191820    -0.02500
Br2241     Br  0.61649325  0.49021245  0.86382147    -0.02200
H2242       H  0.62972772  0.53130301  0.84949207     0.10000
H2243       H  0.55825817  0.51214394  0.87054927     0.08000
Br2244     Br  0.56872521  0.55025302  0.85398198    -0.02600
C2245       C  0.68132225  0.95557633  0.86718283    -0.09200
C2246       C  0.67796295  0.95614769  0.85391465     0.07000
C2247       C  0.67417959  0.93785604  0.84623438    -0.03000
C2248       C  0.67295797  0.91911187  0.85199790    -0.07400
C2249       C  0.67544697  0.91820135  0.86536763     0.06100
C2250       C  0.68040744  0.93701746  0.87291307    -0.02500
Br2251     Br  0.68739715  0.93905235  0.89092158    -0.02200
H2252       H  0.68479888  0.96975363  0.87314212     0.10000
H2253       H  0.66910821  0.90481457  0.84605567     0.08000
Br2254     Br  0.66848674  0.93656416  0.82808881    -0.02600
C2255       C  0.84957613  0.36267380  0.93782666    -0.09200
C2256       C  0.83813563  0.37012059  0.93018250     0.07000
C2257       C  0.81472359  0.35898959  0.93070054    -0.03000
C2258       C  0.80306638  0.34054286  0.93871479    -0.07400
C2259       C  0.81431196  0.33265488  0.94624997     0.06100
C2260       C  0.83787681  0.34399034  0.94580561    -0.02500
Br2261     Br  0.85497854  0.33381015  0.95482997    -0.02200
H2262       H  0.86761946  0.37115189  0.93735456     0.10000
H2263       H  0.78501325  0.33212278  0.93890944     0.08000
Br2264     Br  0.79789460  0.36781026  0.92019335    -0.02600
C2265       C  0.79373611  0.21950695  0.04808017    -0.09200
C2266       C  0.79108363  0.19818138  0.04790876     0.07000
C2267       C  0.78140903  0.18443245  0.03705599    -0.03000
C2268       C  0.77451151  0.19212423  0.02663712    -0.07400
C2269       C  0.77722170  0.21351109  0.02675692     0.06100
C2270       C  0.78674759  0.22718556  0.03769300    -0.02500
Br2271     Br  0.78917497  0.25572818  0.03947003    -0.02200
H2272       H  0.80093963  0.23010739  0.05645072     0.10000
H2273       H  0.76746214  0.18151013  0.01826087     0.08000
Br2274     Br  0.77880155  0.15578026  0.03552763    -0.02600
C2275       C  0.47096995  0.08883660  0.85499165    -0.09200
C2276       C  0.45127431  0.06873789  0.85809621     0.07000
C2277       C  0.45088028  0.05752105  0.86957218    -0.03000
C2278       C  0.47009285  0.06587378  0.87715941    -0.07400
C2279       C  0.48957233  0.08586541  0.87400077     0.06100
C2280       C  0.48982808  0.09759844  0.86293303    -0.02500
Br2281     Br  0.51530429  0.12599078  0.85855967    -0.02200
H2282       H  0.47170776  0.09796949  0.84640108     0.10000
H2283       H  0.46960164  0.05717478  0.88590622     0.08000
Br2284     Br  0.42443167  0.03243657  0.87657710    -0.02600
C2285       C  0.52197420  0.17043687  0.92115815    -0.09200
C2286       C  0.52514006  0.15484130  0.92783935     0.07000
C2287       C  0.52117700  0.15229132  0.94119399    -0.03000
C2288       C  0.51503462  0.16590793  0.94772025    -0.07400
C2289       C  0.51263434  0.18215321  0.94112680     0.06100
C2290       C  0.51552514  0.18383713  0.92760543    -0.02500
Br2291     Br  0.50939933  0.20273975  0.91713600    -0.02200
H2292       H  0.52454574  0.17217164  0.91083753     0.10000
H2293       H  0.51258439  0.16408504  0.95804193     0.08000
Br2294     Br  0.52381744  0.13031230  0.95084128    -0.02600
C2295       C  0.60877096  0.09967836  0.87053260    -0.09200
C2296       C  0.58878411  0.08332752  0.87619554     0.07000
C2297       C  0.58157737  0.06066919  0.87432096    -0.03000
C2298       C  0.59467859  0.05470896  0.86708650    -0.07400
C2299       C  0.61498616  0.07108254  0.86156586     0.06100
C2300       C  0.62192123  0.09383973  0.86331717    -0.02500
Br2301     Br  0.65008500  0.11797551  0.85738018    -0.02200
H2302       H  0.61452758  0.11716494  0.87211405     0.10000
H2303       H  0.58904098  0.03718320  0.86585613     0.08000
Br2304     Br  0.55444510  0.03749244  0.88188231    -0.02600
C2305       C  0.64156316  0.16044078  0.92380155    -0.09200
C2306       C  0.62139009  0.14804170  0.93048063     0.07000
C2307       C  0.62172499  0.14729069  0.94402280    -0.03000
C2308       C  0.64191793  0.15988435  0.95066238    -0.07400
C2309       C  0.66205142  0.17309553  0.94398817     0.06100
C2310       C  0.66180485  0.17254022  0.93037032    -0.02500
Br2311     Br  0.68840504  0.18641096  0.92003993    -0.02200
H2312       H  0.64153459  0.16065936  0.91337140     0.10000
H2313       H  0.64176429  0.15973397  0.96108627     0.08000
Br2314     Br  0.59505790  0.12919189  0.95379369    -0.02600
C2315       C  0.20871576  0.38554922  0.95393694    -0.09200
C2316       C  0.19952491  0.39337171  0.94478775     0.07000
C2317       C  0.19575775  0.41072550  0.94826566    -0.03000
C2318       C  0.20111098  0.41975169  0.96066802    -0.07400
C2319       C  0.21021513  0.41188132  0.96984857     0.06100
C2320       C  0.21382204  0.39441273  0.96640142    -0.02500
Br2321     Br  0.22367189  0.38047519  0.97848948    -0.02200
H2322       H  0.21129088  0.37193181  0.95151148     0.10000
H2323       H  0.19845602  0.43332244  0.96307466     0.08000
Br2324     Br  0.18468310  0.42390562  0.93641740    -0.02600
C2325       C  0.04252028  0.29823734  0.85640228    -0.09200
C2326       C  0.03851715  0.31597940  0.85732991     0.07000
C2327       C  0.05546753  0.33662016  0.86232813    -0.03000
C2328       C  0.07528491  0.33870632  0.86687121    -0.07400
C2329       C  0.07899248  0.32076975  0.86633239     0.06100
C2330       C  0.06249754  0.30043380  0.86083563    -0.02500
Br2331     Br  0.06526120  0.27447949  0.86007600    -0.02200
H2332       H  0.02973900  0.28229169  0.85257779     0.10000
H2333       H  0.08803416  0.35461033  0.87076821     0.08000
Br2334     Br  0.05362679  0.36316162  0.86245472    -0.02600
C2335       C  0.92938279  0.38540848  0.86931874    -0.09200
C2336       C  0.91565993  0.36870930  0.86044016     0.07000
C2337       C  0.89388426  0.36473283  0.85812589    -0.03000
C2338       C  0.88660393  0.37751404  0.86451384    -0.07400
C2339       C  0.90019510  0.39366019  0.87358136     0.06100
C2340       C  0.92171336  0.39755619  0.87599539    -0.02500
Br2341     Br  0.94075948  0.41857086  0.88878054    -0.02200
H2342       H  0.94607279  0.38879675  0.87130212     0.10000
H2343       H  0.86979779  0.37410583  0.86288360     0.08000
Br2344     Br  0.87200328  0.34061800  0.84775025    -0.02600
C2345       C  0.26321643  0.30329348  0.86563133    -0.09200
C2346       C  0.26685660  0.30693894  0.85235509     0.07000
C2347       C  0.25311380  0.31225064  0.84513224    -0.03000
C2348       C  0.23660207  0.31461752  0.85135134    -0.07400
C2349       C  0.23362500  0.31191758  0.86475199     0.06100
C2350       C  0.24668418  0.30549309  0.87183317    -0.02500
Br2351     Br  0.24220542  0.29849883  0.88986442    -0.02200
H2352       H  0.27346462  0.29886248  0.87124884     0.10000
H2353       H  0.22675385  0.31959098  0.84577206     0.08000
Br2354     Br  0.25767532  0.31868824  0.82706652    -0.02600
C2355       C  0.44879425  0.39277809  0.86562420    -0.09200
C2356       C  0.44535685  0.37278257  0.86015783     0.07000
C2357       C  0.46160413  0.36672555  0.86219763    -0.03000
C2358       C  0.48077332  0.38068114  0.86935390    -0.07400
C2359       C  0.48404244  0.40049344  0.87482029     0.06100
C2360       C  0.46788538  0.40654818  0.87293379    -0.02500
Br2361     Br  0.47082041  0.43294339  0.88059687    -0.02200
H2362       H  0.43650770  0.39768629  0.86427636     0.10000
H2363       H  0.49301798  0.37578126  0.87096212     0.08000
Br2364     Br  0.45792372  0.33875239  0.85675085    -0.02600
C2365       C  0.35959603  0.12114964  0.78991502    -0.09200
C2366       C  0.34884534  0.09804100  0.78771994     0.07000
C2367       C  0.33610541  0.08919711  0.77635088    -0.03000
C2368       C  0.33394767  0.10336363  0.76769086    -0.07400
C2369       C  0.34487084  0.12641323  0.76989295     0.06100
C2370       C  0.35779599  0.13530326  0.78110447    -0.02500
Br2371     Br  0.37264633  0.16657686  0.78502668    -0.02200
H2372       H  0.36936324  0.12826546  0.79857635     0.10000
H2373       H  0.32448814  0.09647903  0.75890273     0.08000
Br2374     Br  0.32330720  0.05855321  0.77127494    -0.02600
C2375       C  0.33390000  0.23616537  0.77746565    -0.09200
C2376       C  0.34915786  0.24259613  0.78771060     0.07000
C2377       C  0.36290877  0.23318401  0.78848742    -0.03000
C2378       C  0.36149322  0.21819945  0.77902317    -0.07400
C2379       C  0.34611839  0.21169040  0.76888921     0.06100
C2380       C  0.33229435  0.22090869  0.76812276    -0.02500
Br2381     Br  0.31201621  0.21442902  0.75405832    -0.02200
H2382       H  0.32335703  0.24330221  0.77659240     0.10000
H2383       H  0.37206610  0.21108125  0.77979131     0.08000
Br2384     Br  0.38247512  0.23819121  0.80273445    -0.02600
C2385       C  0.75299494  0.12584522  0.77010875    -0.09200
C2386       C  0.77511440  0.13070934  0.77119708     0.07000
C2387       C  0.78066807  0.12079151  0.78122233    -0.03000
C2388       C  0.76412888  0.10611723  0.78977982    -0.07400
C2389       C  0.74201623  0.10126478  0.78867985     0.06100
C2390       C  0.73647768  0.11120649  0.77866250    -0.02500
Br2391     Br  0.70644878  0.10421081  0.77549659    -0.02200
H2392       H  0.74838301  0.13307762  0.76235308     0.10000
H2393       H  0.76869977  0.09885315  0.79753368     0.08000
Br2394     Br  0.81072754  0.12783496  0.78431864    -0.02600
C2395       C  0.86951615  0.20485960  0.78197713    -0.09200
C2396       C  0.86357837  0.21389584  0.77172293     0.07000
C2397       C  0.87271766  0.23718127  0.77115979    -0.03000
C2398       C  0.88677347  0.25079737  0.78098384    -0.07400
C2399       C  0.89236346  0.24177784  0.79138928     0.06100
C2400       C  0.88372122  0.21853676  0.79179894    -0.02500
Br2401     Br  0.88913585  0.20422411  0.80593241    -0.02200
H2402       H  0.86257926  0.18698608  0.78253940     0.10000
H2403       H  0.89361526  0.26865312  0.78040200     0.08000
Br2404     Br  0.86792482  0.25159631  0.75682339    -0.02600
C2405       C  0.76941450  0.65809356  0.76933883    -0.09200
C2406       C  0.77642362  0.64270519  0.77121979     0.07000
C2407       C  0.76775725  0.62781536  0.78169531    -0.03000
C2408       C  0.75187538  0.62809204  0.78979211    -0.07400
C2409       C  0.74437790  0.64308811  0.78772286     0.06100
C2410       C  0.75343033  0.65830570  0.77737812    -0.02500
Br2411     Br  0.74323965  0.67826422  0.77282535    -0.02200
H2412       H  0.77573542  0.66944248  0.76122606     0.10000
H2413       H  0.74540433  0.61653347  0.79780025     0.08000
Br2414     Br  0.77776713  0.60752884  0.78579189    -0.02600
C2415       C  0.87143423  0.65784321  0.77957221    -0.09200
C2416       C  0.86021949  0.63966735  0.77108906     0.07000
C2417       C  0.86412451  0.62175573  0.77211736    -0.03000
C2418       C  0.87835894  0.62204725  0.78167694    -0.07400
C2419       C  0.88927735  0.64000976  0.79028564     0.06100
C2420       C  0.88580571  0.65815403  0.78911068    -0.02500
Br2421     Br  0.89875815  0.68303521  0.80074279    -0.02200
H2422       H  0.86864100  0.67172407  0.77898054     0.10000
H2423       H  0.88116191  0.60817163  0.78225671     0.08000
Br2424     Br  0.85181615  0.59694104  0.76038726    -0.02600
C2425       C  0.60328365  0.78148571  0.53722503    -0.09200
C2426       C  0.59513138  0.79091340  0.54599020     0.07000
C2427       C  0.57792619  0.79457805  0.54214107    -0.03000
C2428       C  0.56962245  0.78940091  0.52958680    -0.07400
C2429       C  0.57798044  0.78029348  0.52071717     0.06100
C2430       C  0.59496642  0.77627843  0.52464245    -0.02500
Br2431     Br  0.60868017  0.76543388  0.51303759    -0.02200
H2432       H  0.61661308  0.77872316  0.54007805     0.10000
H2433       H  0.55627151  0.79217457  0.52680653     0.08000
Br2434     Br  0.56408600  0.80511611  0.55386552    -0.02600
C2435       C  0.76350531  0.65782235  0.69974425    -0.09200
C2436       C  0.74227294  0.63851770  0.69879719     0.07000
C2437       C  0.73692992  0.62048810  0.70715684    -0.03000
C2438       C  0.75296899  0.62165296  0.71571073    -0.07400
C2439       C  0.77442356  0.64073926  0.71650599     0.06100
C2440       C  0.77949529  0.65915828  0.70847442    -0.02500
Br2441     Br  0.80797134  0.68642628  0.70845867    -0.02200
H2442       H  0.76787858  0.67188136  0.69347377     0.10000
H2443       H  0.74834618  0.60759258  0.72202960     0.08000
Br2444     Br  0.70754475  0.59453835  0.70836610    -0.02600
C2445       C  0.63894598  0.70872945  0.63946835    -0.09200
C2446       C  0.66083628  0.71398085  0.64226765     0.07000
C2447       C  0.67847608  0.73631305  0.64069906    -0.03000
C2448       C  0.67395797  0.75248631  0.63611533    -0.07400
C2449       C  0.65221232  0.74682776  0.63273287     0.06100
C2450       C  0.63453705  0.72479561  0.63470803    -0.02500
Br2451     Br  0.60393490  0.71571853  0.63142084    -0.02200
H2452       H  0.62507336  0.69188684  0.64086891     0.10000
H2453       H  0.68771039  0.76933658  0.63451361     0.08000
Br2454     Br  0.70930030  0.74563923  0.64316201    -0.02600
C2455       C  0.76387880  0.10359172  0.69862876    -0.09200
C2456       C  0.74238300  0.10063772  0.69888014     0.07000
C2457       C  0.73757792  0.11237110  0.70814785    -0.03000
C2458       C  0.75427179  0.12722653  0.71653801    -0.07400
C2459       C  0.77581181  0.13033225  0.71627528     0.06100
C2460       C  0.78051079  0.11814993  0.70722264    -0.02500
Br2461     Br  0.80933324  0.12109355  0.70566731    -0.02200
H2462       H  0.76787422  0.09469537  0.69159943     0.10000
H2463       H  0.75009188  0.13585922  0.72365304     0.08000
Br2464     Br  0.70811126  0.10727310  0.71088017    -0.02600
C2465       C  0.68884893  0.92844096  0.62941806    -0.09200
C2466       C  0.66790466  0.91161626  0.62498268     0.07000
C2467       C  0.64924337  0.91402160  0.62666784    -0.03000
C2468       C  0.65189927  0.93343211  0.63220305    -0.07400
C2469       C  0.67293427  0.95074402  0.63627018     0.06100
C2470       C  0.69156065  0.94799450  0.63499140    -0.02500
Br2471     Br  0.72129290  0.97071025  0.63967868    -0.02200
H2472       H  0.70326557  0.92663187  0.62820045     0.10000
H2473       H  0.63728440  0.93490193  0.63340644     0.08000
Br2474     Br  0.61948771  0.89084464  0.62229660    -0.02600
C2475       C  0.80699709  0.32940041  0.55295452    -0.09200
C2476       C  0.81635245  0.32452487  0.54234643     0.07000
C2477       C  0.83871059  0.34029151  0.53887156    -0.03000
C2478       C  0.85052814  0.36055823  0.54558702    -0.07400
C2479       C  0.84091066  0.36512750  0.55609454     0.06100
C2480       C  0.81915599  0.34912853  0.55993447    -0.02500
Br2481     Br  0.80538530  0.35340983  0.57478841    -0.02200
H2482       H  0.79002451  0.31785891  0.55594002     0.10000
H2483       H  0.86750454  0.37263564  0.54279604     0.08000
Br2484     Br  0.85512567  0.33488384  0.52601492    -0.02600
C2485       C  0.77563977  0.18627849  0.46201400    -0.09200
C2486       C  0.77493366  0.20600892  0.46178826     0.07000
C2487       C  0.78135609  0.21903439  0.45049583    -0.03000
C2488       C  0.78871121  0.21239883  0.43979538    -0.07400
C2489       C  0.78948664  0.19268497  0.44002128     0.06100
C2490       C  0.78292407  0.17959373  0.45130762    -0.02500
Br2491     Br  0.78505966  0.15337542  0.45309392    -0.02200
H2492       H  0.77099555  0.17625584  0.47068679     0.10000
H2493       H  0.79331616  0.22242549  0.43112657     0.08000
Br2494     Br  0.77873256  0.24498280  0.44874712    -0.02600
C2495       C  0.83151927  0.47729001  0.53745708    -0.09200
C2496       C  0.81420430  0.47827345  0.54371521     0.07000
C2497       C  0.81090518  0.47375125  0.55703888    -0.03000
C2498       C  0.82384751  0.46695040  0.56360901    -0.07400
C2499       C  0.84046808  0.46504768  0.55721510     0.06100
C2500       C  0.84466670  0.47078413  0.54411364    -0.02500
Br2501     Br  0.86808110  0.46988411  0.53498635    -0.02200
H2502       H  0.83450232  0.48108329  0.52728604     0.10000
H2503       H  0.82088703  0.46300593  0.57376899     0.08000
Br2504     Br  0.79021927  0.47798730  0.56704678    -0.02600
C2505       C  0.80858011  0.58496512  0.46538278    -0.09200
C2506       C  0.78567522  0.56939275  0.46674855     0.07000
C2507       C  0.77100139  0.56713756  0.45672699    -0.03000
C2508       C  0.77931535  0.58074818  0.44583899    -0.07400
C2509       C  0.80217330  0.59641951  0.44453413     0.06100
C2510       C  0.81690951  0.59844123  0.45444385    -0.02500
Br2511     Br  0.84823677  0.62030841  0.45414768    -0.02200
H2512       H  0.82007905  0.58703560  0.47300981     0.10000
H2513       H  0.76786399  0.57870883  0.43818766     0.08000
Br2514     Br  0.73985617  0.54470494  0.45668820    -0.02600
C2515       C  0.59178802  0.49660765  0.62908906    -0.09200
C2516       C  0.58816807  0.49725145  0.61587318     0.07000
C2517       C  0.59355562  0.51771051  0.61014793    -0.03000
C2518       C  0.60370915  0.53732679  0.61747318    -0.07400
C2519       C  0.60850948  0.53696419  0.63058251     0.06100
C2520       C  0.60164320  0.51615569  0.63648685    -0.02500
Br2521     Br  0.60397915  0.51300395  0.65468165    -0.02200
H2522       H  0.58714775  0.48083497  0.63363166     0.10000
H2523       H  0.60848096  0.55300801  0.61278006     0.08000
Br2524     Br  0.58754196  0.51958253  0.59230846    -0.02600
C2525       C  0.64705516  0.46527547  0.56818501    -0.09200
C2526       C  0.62937701  0.46739572  0.56362602     0.07000
C2527       C  0.63187294  0.47890670  0.55205213    -0.03000
C2528       C  0.65097609  0.48597100  0.54453066    -0.07400
C2529       C  0.66816456  0.48253779  0.54867546     0.06100
C2530       C  0.66665412  0.47340415  0.56105871    -0.02500
Br2531     Br  0.69114869  0.47328595  0.56943218    -0.02200
H2532       H  0.64561846  0.45738703  0.57740597     0.10000
H2533       H  0.65207985  0.49361821  0.53528073     0.08000
Br2534     Br  0.60941968  0.48489954  0.54614164    -0.02600
C2535       C  0.50481961  0.33824894  0.54466791    -0.09200
C2536       C  0.51380092  0.32439583  0.54615220     0.07000
C2537       C  0.53228055  0.33126483  0.55444729    -0.03000
C2538       C  0.54064320  0.35105459  0.56147722    -0.07400
C2539       C  0.53106639  0.36435714  0.56035564     0.06100
C2540       C  0.51326573  0.35806998  0.55172228    -0.02500
Br2541     Br  0.49996407  0.37599407  0.54939259    -0.02200
H2542       H  0.49081207  0.33335888  0.53825426     0.10000
H2543       H  0.55461128  0.35604813  0.56794306     0.08000
Br2544     Br  0.54780166  0.31526701  0.55608507    -0.02600
C2545       C  0.44648880  0.20695004  0.45078312    -0.09200
C2546       C  0.43772180  0.21297893  0.46112749     0.07000
C2547       C  0.41793419  0.21346692  0.45928992    -0.03000
C2548       C  0.40769382  0.20857790  0.44718256    -0.07400
C2549       C  0.41653779  0.20267625  0.43683802     0.06100
C2550       C  0.43613669  0.20188572  0.43870131    -0.02500
Br2551     Br  0.45032205  0.19550377  0.42489934    -0.02200
H2552       H  0.46173581  0.20662696  0.45203528     0.10000
H2553       H  0.39239319  0.20880116  0.44592590     0.08000
Br2554     Br  0.40303447  0.21874054  0.47315618    -0.02600
C2555       C  0.58783280  0.04633282  0.62350782    -0.09200
C2556       C  0.60914525  0.06267955  0.62789546     0.07000
C2557       C  0.61811590  0.08498407  0.62383730    -0.03000
C2558       C  0.60550943  0.09061583  0.61597425    -0.07400
C2559       C  0.58427290  0.07431171  0.61161416     0.06100
C2560       C  0.57547582  0.05195357  0.61534766    -0.02500
Br2561     Br  0.54727139  0.02852680  0.60899454    -0.02200
H2562       H  0.58088985  0.02905296  0.62629251     0.10000
H2563       H  0.61262046  0.10776603  0.61285916     0.08000
Br2564     Br  0.64834697  0.10806948  0.62726677    -0.02600
C2565       C  0.64130385  0.15122147  0.53792017    -0.09200
C2566       C  0.66097661  0.16365809  0.54516223     0.07000
C2567       C  0.65956732  0.16213151  0.55874097    -0.03000
C2568       C  0.63875692  0.14989576  0.56472950    -0.07400
C2569       C  0.61907139  0.13825495  0.55750239     0.06100
C2570       C  0.62051934  0.13843738  0.54396976    -0.02500
Br2571     Br  0.59459510  0.12138984  0.53341713    -0.02200
H2572       H  0.64199006  0.15174895  0.52750506     0.10000
H2573       H  0.63790261  0.14942385  0.57514897     0.08000
Br2574     Br  0.68529396  0.17472969  0.56976280    -0.02600
C2575       C  0.53188222  0.17010419  0.56274650    -0.09200
C2576       C  0.52413517  0.14792765  0.55928317     0.07000
C2577       C  0.50932046  0.13845470  0.54885157    -0.03000
C2578       C  0.50242135  0.15119578  0.54206697    -0.07400
C2579       C  0.51003078  0.17342909  0.54554644     0.06100
C2580       C  0.52527871  0.18299748  0.55590800    -0.02500
Br2581     Br  0.53933875  0.21391448  0.56068403    -0.02200
H2582       H  0.54352833  0.17753863  0.57066941     0.10000
H2583       H  0.49073256  0.14354291  0.53418945     0.08000
Br2584     Br  0.49785510  0.10807266  0.54372946    -0.02600
C2585       C  0.18928062  0.76267843  0.52595332    -0.09200
C2586       C  0.20304398  0.78000059  0.51746325     0.07000
C2587       C  0.20901994  0.80204548  0.52059613    -0.03000
C2588       C  0.20180872  0.80641801  0.53219175    -0.07400
C2589       C  0.18851577  0.78920129  0.54086987     0.06100
C2590       C  0.18213025  0.76704318  0.53759699    -0.02500
Br2591     Br  0.16552987  0.74216481  0.54894891    -0.02200
H2592       H  0.18471811  0.74567663  0.52375275     0.10000
H2593       H  0.20651757  0.82346149  0.53438211     0.08000
Br2594     Br  0.22587441  0.82678170  0.50919079    -0.02600
C2595       C  0.32500009  0.09817098  0.69574082    -0.09200
C2596       C  0.34295594  0.09443528  0.69566487     0.07000
C2597       C  0.35928029  0.10419103  0.70539285    -0.03000
C2598       C  0.35807436  0.11826400  0.71450784    -0.07400
C2599       C  0.34057733  0.12269408  0.71438154     0.06100
C2600       C  0.32367467  0.11217189  0.70495130    -0.02500
Br2601     Br  0.29924851  0.11733251  0.70348960    -0.02200
H2602       H  0.31227382  0.09069230  0.68835654     0.10000
H2603       H  0.37085818  0.12562397  0.72186799     0.08000
Br2604     Br  0.38275854  0.09773163  0.70736153    -0.02600
C2605       C  0.24943011  0.94555293  0.62955172    -0.09200
C2606       C  0.26804871  0.94416851  0.63332554     0.07000
C2607       C  0.26792839  0.92417617  0.63099703    -0.03000
C2608       C  0.25029607  0.90682582  0.62419600    -0.07400
C2609       C  0.23212477  0.90852501  0.62003922     0.06100
C2610       C  0.23146126  0.92785809  0.62303272    -0.02500
Br2611     Br  0.20714376  0.93144366  0.61772264    -0.02200
H2612       H  0.24911449  0.96068018  0.63134421     0.10000
H2613       H  0.25059668  0.89170633  0.62231189     0.08000
Br2614     Br  0.29029040  0.91867489  0.63772666    -0.02600
C2615       C  0.44586238  0.05243859  0.61662914    -0.09200
C2616       C  0.44678591  0.06385726  0.62801300     0.07000
C2617       C  0.46778084  0.08189648  0.63198998    -0.03000
C2618       C  0.48661844  0.08902185  0.62416518    -0.07400
C2619       C  0.48537158  0.07783295  0.61270300     0.06100
C2620       C  0.46489225  0.05903964  0.60913880    -0.02500
Br2621     Br  0.46206804  0.04208021  0.59396657    -0.02200
H2622       H  0.43018908  0.03846779  0.61332989     0.10000
H2623       H  0.50244166  0.10325868  0.62710159     0.08000
Br2624     Br  0.47271098  0.09646358  0.64835628    -0.02600
C2625       C  0.86677513  0.62083124  0.69798003    -0.09200
C2626       C  0.88984379  0.63590432  0.69917454     0.07000
C2627       C  0.89745442  0.65205037  0.70909615    -0.03000
C2628       C  0.88207155  0.65302846  0.71733572    -0.07400
C2629       C  0.85904894  0.63783177  0.71617609     0.06100
C2630       C  0.85145099  0.62161453  0.70633875    -0.02500
Br2631     Br  0.82033185  0.60081694  0.70334753    -0.02200
H2632       H  0.86051301  0.60849141  0.69035911     0.10000
H2633       H  0.88823183  0.66527670  0.72501367     0.08000
Br2634     Br  0.92853366  0.67187655  0.71279039    -0.02600
C2635       C  0.04573031  0.73251635  0.63756372    -0.09200
C2636       C  0.02863675  0.71713140  0.62944685     0.07000
C2637       C  0.03095473  0.72066551  0.61603583    -0.03000
C2638       C  0.05061678  0.73841965  0.61098655    -0.07400
C2639       C  0.06830721  0.75311666  0.61901246     0.06100
C2640       C  0.06551383  0.75033865  0.63249978    -0.02500
Br2641     Br  0.08862647  0.76861774  0.64454242    -0.02200
H2642       H  0.04415969  0.73004883  0.64789217     0.10000
H2643       H  0.05216570  0.74060730  0.60063885     0.08000
Br2644     Br  0.00761807  0.70246101  0.60407191    -0.02600
C2645       C  0.89484122  0.51886005  0.62751610    -0.09200
C2646       C  0.91765436  0.53533138  0.62755546     0.07000
C2647       C  0.93278460  0.53096936  0.62097383    -0.03000
C2648       C  0.92481504  0.51120237  0.61392985    -0.07400
C2649       C  0.90196128  0.49538934  0.61339376     0.06100
C2650       C  0.88695968  0.49904911  0.62050778    -0.02500
Br2651     Br  0.85554511  0.47763535  0.62061181    -0.02200
H2652       H  0.88296079  0.52168709  0.63260224     0.10000
H2653       H  0.93647347  0.50833038  0.60861356     0.08000
Br2654     Br  0.96457134  0.55058478  0.62166056    -0.02600
C2655       C  0.22259677  0.41972018  0.54188154    -0.09200
C2656       C  0.20097510  0.40099480  0.54290701     0.07000
C2657       C  0.18663639  0.39454651  0.53215505    -0.03000
C2658       C  0.19371610  0.40725964  0.52088123    -0.07400
C2659       C  0.21513292  0.42625137  0.51992646     0.06100
C2660       C  0.22974058  0.43238660  0.53055181    -0.02500
Br2661     Br  0.25888073  0.45877620  0.53058905    -0.02200
H2662       H  0.23379821  0.42489832  0.55006190     0.10000
H2663       H  0.18249955  0.40203236  0.51270652     0.08000
Br2664     Br  0.15788119  0.36767299  0.53185435    -0.02600
C2665       C  0.88863499  0.22452047  0.69804445    -0.09200
C2666       C  0.89360251  0.24672725  0.69861346     0.07000
C2667       C  0.88420385  0.25306871  0.70854793    -0.03000
C2668       C  0.86962478  0.23718806  0.71736048    -0.07400
C2669       C  0.86421370  0.21486650  0.71666572     0.06100
C2670       C  0.87400317  0.20857112  0.70691268    -0.02500
Br2671     Br  0.86683899  0.17831791  0.70454509    -0.02200
H2672       H  0.89562635  0.21937760  0.69041861     0.10000
H2673       H  0.86264667  0.24244431  0.72493792     0.08000
Br2674     Br  0.89160887  0.28334644  0.71121957    -0.02600
C2675       C  0.03799744  0.31065036  0.61840587    -0.09200
C2676       C  0.03795308  0.31487375  0.63159714     0.07000
C2677       C  0.05716009  0.32078266  0.63895931    -0.03000
C2678       C  0.07606002  0.32262668  0.63302220    -0.07400
C2679       C  0.07632414  0.31895649  0.61973808     0.06100
C2680       C  0.05683274  0.31246343  0.61245998    -0.02500
Br2681     Br  0.05433430  0.30473047  0.59454644    -0.02200
H2682       H  0.02321777  0.30583774  0.61268389     0.10000
H2683       H  0.09094021  0.32787966  0.63872835     0.08000
Br2684     Br  0.05932314  0.32873681  0.65680315    -0.02600
C2685       C  0.89624523  0.36337209  0.62388485    -0.09200
C2686       C  0.91923396  0.37217492  0.62565037     0.07000
C2687       C  0.93443838  0.39348546  0.62056441    -0.03000
C2688       C  0.92655697  0.40503273  0.61341074    -0.07400
C2689       C  0.90366884  0.39577871  0.61122993     0.06100
C2690       C  0.88841666  0.37493361  0.61670169    -0.02500
Br2691     Br  0.85679695  0.36146832  0.61434773    -0.02200
H2692       H  0.88432669  0.34712860  0.62777584     0.10000
H2693       H  0.93835220  0.42118863  0.60936429     0.08000
Br2694     Br  0.96602025  0.40827241  0.62355238    -0.02600
C2695       C  0.35584691  0.22752781  0.69310131    -0.09200
C2696       C  0.34309361  0.23773396  0.69473096     0.07000
C2697       C  0.32979719  0.23272382  0.70592140    -0.03000
C2698       C  0.32907750  0.21739733  0.71492096    -0.07400
C2699       C  0.34209380  0.20753393  0.71330885     0.06100
C2700       C  0.35560747  0.21275630  0.70227555    -0.02500
Br2701     Br  0.37345235  0.19956858  0.69896624    -0.02200
H2702       H  0.36607508  0.23097571  0.68459155     0.10000
H2703       H  0.31902728  0.21390149  0.72351638     0.08000
Br2704     Br  0.31425722  0.24789424  0.71034192    -0.02600
C2705       C  0.26854794  0.31557608  0.62044677    -0.09200
C2706       C  0.27202388  0.31785695  0.63377533     0.07000
C2707       C  0.25813182  0.32227570  0.64148731    -0.03000
C2708       C  0.24139162  0.32485073  0.63574421    -0.07400
C2709       C  0.23829044  0.32316964  0.62233102     0.06100
C2710       C  0.25173261  0.31788469  0.61470597    -0.02500
Br2711     Br  0.24720071  0.31216774  0.59654109    -0.02200
H2712       H  0.27890442  0.31178643  0.61446143     0.10000
H2713       H  0.23131060  0.32898431  0.64173633     0.08000
Br2714     Br  0.26262133  0.32682297  0.65970504    -0.02600
C2715       C  0.46672098  0.37296645  0.63122848    -0.09200
C2716       C  0.44720827  0.36747677  0.62433266     0.07000
C2717       C  0.44915705  0.37482754  0.61145058    -0.03000
C2718       C  0.47025966  0.38754420  0.60587095    -0.07400
C2719       C  0.48959494  0.39273761  0.61275450     0.06100
C2720       C  0.48777239  0.38537843  0.62552381    -0.02500
Br2721     Br  0.51348264  0.39085439  0.63523295    -0.02200
H2722       H  0.46561537  0.36741661  0.64107954     0.10000
H2723       H  0.47160108  0.39269242  0.59590979     0.08000
Br2724     Br  0.42398351  0.36618809  0.60037183    -0.02600
loop_ 
_geom_bond_atom_site_label_1 
_geom_bond_atom_site_label_2 
_geom_bond_distance 
_geom_bond_site_symmetry_2 
_ccdc_geom_bond_type 
N1            N2   1.323       .  A
N1            C5   1.348       .  A
N1           Cu9   2.087       .  S
N2            C3   1.343       .  A
N2           Cu8   2.066       .  S
C3            C4   1.380       .  A
C3            H6   1.082       .  S
C4            C5   1.386       .  A
C4         C2706   1.476       .  S
C5            H7   1.082       .  S
Cu8          N11   2.064       .  S
Cu9          N19   2.088       .  S
Cu10         N12   2.072       .  S
Cu10         N18   2.073       .  S
N11          N12   1.320       .  A
N11          C15   1.343       .  A
N12          C13   1.345       .  A
C13          C14   1.387       .  A
C13          H16   1.082       .  S
C14          C15   1.385       .  A
C14        C2716   1.482       .  S
C15          H17   1.081       .  S
N18          N19   1.322       .  A
N18          C22   1.343       .  A
N19          C20   1.347       .  A
C20          C21   1.389       .  A
C20          H23   1.081       .  S
C21          C22   1.385       .  A
C21        C2696   1.488       .  S
C22          H24   1.082       .  S
N25          N26   1.323       .  A
N25          C29   1.347       .  A
N25         Cu33   2.081       .  S
N26          C27   1.343       .  A
N26         Cu32   2.074       .  S
C27          C28   1.383       .  A
C27          H30   1.082       .  S
C28          C29   1.385       .  A
C28        C2666   1.479       .  S
C29          H31   1.082       .  S
Cu32         N35   2.074       .  S
Cu33         N43   2.080       .  S
Cu34         N36   2.068       .  S
Cu34         N42   2.068       .  S
N35          N36   1.320       .  A
N35          C39   1.347       .  A
N36          C37   1.343       .  A
C37          C38   1.385       .  A
C37          H40   1.081       .  S
C38          C39   1.387       .  A
C38        C2686   1.482       .  S
C39          H41   1.082       .  S
N42          N43   1.322       .  A
N42          C46   1.343   1_655  A
N43          C44   1.348   1_655  A
C44          C45   1.386       .  A
C44          H47   1.082       .  S
C45          C46   1.381       .  A
C45        C2676   1.476       .  S
C46          H48   1.082       .  S
N49          N50   1.322       .  A
N49          C53   1.349       .  A
N49         Cu57   2.087       .  S
N50          C51   1.341       .  A
N50         Cu56   2.066       .  S
C51          C52   1.382       .  A
C51          H54   1.081       .  S
C52          C53   1.389       .  A
C52        C2709   1.483       .  S
C53          H55   1.082       .  S
Cu56         N59   2.066       .  S
Cu57         N67   2.088       .  S
Cu58         N60   2.073       .  S
Cu58         N66   2.073       .  S
N59          N60   1.320       .  A
N59          C63   1.345       .  A
N60          C61   1.345       .  A
C61          C62   1.387       .  A
C61          H64   1.082       .  S
C62          C63   1.384       .  A
C62        C2656   1.480       .  S
C63          H65   1.082       .  S
N66          N67   1.324       .  A
N66          C70   1.343       .  A
N67          C68   1.347       .  A
C68          C69   1.387       .  A
C68          H71   1.082       .  S
C69          C70   1.383       .  A
C69        C2679   1.482       .  S
C70          H72   1.081       .  S
N73          N74   1.321       .  A
N73          C77   1.347       .  A
N73         Cu81   2.077       .  S
N74          C75   1.343       .  A
N74         Cu80   2.072       .  S
C75          C76   1.385   1_655  A
C75          H78   1.082   1_655  S
C76          C77   1.386   1_455  A
C76        C2636   1.481       .  S
C77          H79   1.082   1_655  S
Cu80         N83   2.072       .  S
Cu81         N91   2.078       .  S
Cu82         N84   2.087       .  S
Cu82         N90   2.087       .  S
N83          N84   1.321       .  A
N83          C87   1.344       .  A
N84          C85   1.348       .  A
C85          C86   1.389       .  A
C85          H88   1.082       .  S
C86          C87   1.386       .  A
C86        C2646   1.487       .  S
C87          H89   1.081       .  S
N90          N91   1.323       .  A
N90          C94   1.346       .  A
N91          C92   1.346       .  A
C92          C93   1.387       .  A
C92          H95   1.081       .  S
C93          C94   1.388       .  A
C93        C2626   1.488       .  S
C94          H96   1.082       .  S
N97          N98   1.322       .  A
N97         C101   1.347       .  A
N97        Cu105   2.077   1_565  S
N98          C99   1.343       .  A
N98        Cu104   2.076   1_565  S
C99         C100   1.385       .  A
C99         H102   1.081       .  S
C100        C101   1.386       .  A
C100       C2606   1.483       .  S
C101        H103   1.082       .  S
Cu104       N107   2.075       .  S
Cu105       N115   2.077       .  S
Cu106       N108   2.081       .  S
Cu106       N114   2.081       .  S
N107        N108   1.320       .  A
N107        C111   1.344       .  A
N108        C109   1.346       .  A
C109        C110   1.391       .  A
C109        H112   1.080       .  S
C110        C111   1.390       .  A
C110       C2616   1.493       .  S
C111        H113   1.081       .  S
N114        N115   1.323       .  A
N114        C118   1.344       .  A
N115        C116   1.347       .  A
C116        C117   1.385       .  A
C116        H119   1.082       .  S
C117        C118   1.385       .  A
C117       C2596   1.482       .  S
C118        H120   1.082       .  S
N121        N122   1.323       .  A
N121        C125   1.347       .  A
N121       Cu129   2.081       .  S
N122        C123   1.343       .  A
N122       Cu128   2.072       .  S
C123        C124   1.382       .  A
C123        H126   1.082       .  S
C124        C125   1.384       .  A
C124       C2609   1.475       .  S
C125        H127   1.082       .  S
Cu128       N131   2.071       .  S
Cu129       N139   2.081       .  S
Cu130       N132   2.072       .  S
Cu130       N138   2.073       .  S
N131        N132   1.320       .  A
N131        C135   1.344       .  A
N132        C133   1.346       .  A
C133        C134   1.387       .  A
C133        H136   1.081       .  S
C134        C135   1.386       .  A
C134       C2589   1.484       .  S
C135        H137   1.082       .  S
N138        N139   1.322       .  A
N138        C142   1.342       .  A
N139        C140   1.348       .  A
C140        C141   1.388       .  A
C140        H143   1.081       .  S
C141        C142   1.384       .  A
C141       C2639   1.485       .  S
C142        H144   1.082       .  S
N145        C150   1.354       .  A
N145        C149   1.356       .  A
N145        H177   1.033       .  S
N146        C153   1.351       .  A
N146        C154   1.350       .  A
N147        C152   1.355       .  A
N147        C151   1.355       .  A
N147        H178   1.036       .  S
N148        C155   1.353       .  A
N148        C156   1.353       .  A
C149        C157   1.386       .  A
C149        C165   1.417       .  A
C150        C166   1.416       .  A
C150        C158   1.387       .  A
C151        C159   1.387       .  A
C151        C168   1.417       .  A
C152        C167   1.417       .  A
C152        C160   1.387       .  A
C153        C165   1.412       .  A
C153        C161   1.386       .  A
C154        C168   1.413       .  A
C154        C162   1.387       .  A
C155        C163   1.386       .  A
C155        C166   1.414       .  A
C156        C164   1.387       .  A
C156        C167   1.417       .  A
C157        C158   1.373       .  A
C157        H169   1.082       .  S
C158        H170   1.082       .  S
C159        C160   1.375       .  A
C159        H171   1.082       .  S
C160        H172   1.081       .  S
C161        C162   1.372       .  A
C161        H173   1.082       .  S
C162        H174   1.082       .  S
C163        C164   1.370       .  A
C163        H175   1.082       .  S
C164        H176   1.082       .  S
C165       C2569   1.494       .  S
C166       C2576   1.486       .  S
C167       C2619   1.491       .  S
C168       C2559   1.488       .  S
N179        N180   1.320       .  A
N179        C183   1.348       .  A
N179       Cu187   2.081       .  S
N180        C181   1.341       .  A
N180       Cu186   2.055       .  S
C181        C182   1.382       .  A
C181        H184   1.081       .  S
C182        C183   1.388       .  A
C182       C2536   1.480       .  S
C183        H185   1.082       .  S
Cu186       N189   2.054       .  S
Cu187       N197   2.083       .  S
Cu188       N190   2.086       .  S
Cu188       N196   2.087       .  S
N189        N190   1.320       .  A
N189        C193   1.340       .  A
N190        C191   1.349       .  A
C191        C192   1.391       .  A
C191        H194   1.082       .  S
C192        C193   1.381       .  A
C192       C2579   1.483       .  S
C193        H195   1.081       .  S
N196        N197   1.325       .  A
N196        C200   1.347       .  A
N197        C198   1.345       .  A
C198        C199   1.383       .  A
C198        H201   1.082       .  S
C199        C200   1.384       .  A
C199       C2546   1.480       .  S
C200        H202   1.082       .  S
N203        C208   1.353       .  A
N203        C207   1.351       .  A
N203        H235   1.036       .  S
N204        C211   1.351       .  A
N204        C212   1.351       .  A
N205        C210   1.353       .  A
N205        C209   1.354       .  A
N205        H236   1.039       .  S
N206        C213   1.352       .  A
N206        C214   1.350       .  A
C207        C215   1.390       .  A
C207        C223   1.418       .  A
C208        C224   1.413       .  A
C208        C216   1.385       .  A
C209        C217   1.387       .  A
C209        C226   1.416       .  A
C210        C225   1.415       .  A
C210        C218   1.387       .  A
C211        C223   1.414       .  A
C211        C219   1.387       .  A
C212        C226   1.414       .  A
C212        C220   1.386       .  A
C213        C221   1.386       .  A
C213        C224   1.411       .  A
C214        C222   1.387       .  A
C214        C225   1.412       .  A
C215        C216   1.375       .  A
C215        H227   1.081       .  S
C216        H228   1.082       .  S
C217        C218   1.377       .  A
C217        H229   1.082       .  S
C218        H230   1.082       .  S
C219        C220   1.371       .  A
C219        H231   1.082       .  S
C220        H232   1.082       .  S
C221        C222   1.371       .  A
C221        H233   1.082       .  S
C222        H234   1.082       .  S
C223       C2526   1.482       .  S
C224       C2539   1.485       .  S
C225       C2719   1.483       .  S
C226       C2516   1.489       .  S
N237        N238   1.321       .  A
N237        C241   1.348       .  A
N237       Cu245   2.080       .  S
N238        C239   1.338       .  A
N238       Cu244   2.054       .  S
C239        C240   1.381       .  A
C239        H242   1.080       .  S
C240        C241   1.389       .  A
C240       C2529   1.481       .  S
C241        H243   1.082       .  S
Cu244       N247   2.055       .  S
Cu245       N255   2.081       .  S
Cu246       N248   2.062       .  S
Cu246       N254   2.064       .  S
N247        N248   1.319       .  A
N247        C251   1.341       .  A
N248        C249   1.344       .  A
C249        C250   1.384       .  A
C249        H252   1.082       .  S
C250        C251   1.383       .  A
C250       C2496   1.475       .  S
C251        H253   1.081       .  S
N254        N255   1.322       .  A
N254        C258   1.342       .  A
N255        C256   1.346       .  A
C256        C257   1.387       .  A
C256        H259   1.081       .  S
C257        C258   1.382       .  A
C257       C2506   1.480       .  S
C258        H260   1.082       .  S
N261        N262   1.319       .  A
N261        C265   1.347       .  A
N261       Cu269   2.075       .  S
N262        C263   1.341       .  A
N262       Cu268   2.070       .  S
C263        C264   1.389       .  A
C263        H266   1.081       .  S
C264        C265   1.392       .  A
C264       C2476   1.493       .  S
C265        H267   1.079       .  S
Cu268       N271   2.071       .  S
Cu269       N279   2.076       .  S
Cu270       N272   2.078       .  S
Cu270       N278   2.079       .  S
N271        N272   1.320       .  A
N271        C275   1.343       .  A
N272        C273   1.348       .  A
C273        C274   1.389       .  A
C273        H276   1.082       .  S
C274        C275   1.387       .  A
C274       C2566   1.488       .  S
C275        H277   1.081       .  S
N278        N279   1.324       .  A
N278        C282   1.345       .  A
N279        C280   1.345       .  A
C280        C281   1.383       .  A
C280        H283   1.082       .  S
C281        C282   1.383       .  A
C281       C2486   1.477       .  S
C282        H284   1.082       .  S
N285        C290   1.352       .  A
N285        C289   1.354       .  A
N285        H317   1.038       .  S
N286        C293   1.352       .  A
N286        C294   1.350       .  A
N287        C292   1.354       .  A
N287        C291   1.354       .  A
N287        H318   1.038       .  S
N288        C295   1.351       .  A
N288        C296   1.351       .  A
C289        C297   1.388       .  A
C289        C305   1.416       .  A
C290        C306   1.414       .  A
C290        C298   1.387       .  A
C291        C299   1.387       .  A
C291        C308   1.418       .  A
C292        C307   1.416       .  A
C292        C300   1.386       .  A
C293        C305   1.411       .  A
C293        C301   1.385       .  A
C294        C308   1.415       .  A
C294        C302   1.387       .  A
C295        C303   1.386       .  A
C295        C306   1.411       .  A
C296        C304   1.387       .  A
C296        C307   1.414       .  A
C297        C298   1.372       .  A
C297        H309   1.082       .  S
C298        H310   1.082       .  S
C299        C300   1.378       .  A
C299        H311   1.082       .  S
C300        H312   1.082       .  S
C301        C302   1.372       .  A
C301        H313   1.082       .  S
C302        H314   1.082       .  S
C303        C304   1.371       .  A
C303        H315   1.082       .  S
C304        H316   1.082       .  S
C305       C2479   1.487       .  S
C306       C2499   1.483       .  S
C307       C2649   1.488       .  S
C308       C2689   1.487       .  S
N319        N320   1.323       .  A
N319        C323   1.346       .  A
N319       Cu327   2.079       .  S
N320        C321   1.345       .  A
N320       Cu326   2.083       .  S
C321        C322   1.386       .  A
C321        H324   1.081       .  S
C322        C323   1.385       .  A
C322       C2456   1.484       .  S
C323        H325   1.082       .  S
Cu326       N329   2.082       .  S
Cu327       N337   2.078       .  S
Cu328       N330   2.058       .  S
Cu328       N336   2.058   1_545  S
N329        N330   1.320       .  A
N329        C333   1.346       .  A
N330        C331   1.343       .  A
C331        C332   1.382       .  A
C331        H334   1.082       .  S
C332        C333   1.389       .  A
C332       C2556   1.481       .  S
C333        H335   1.081       .  S
N336        N337   1.320   1_565  A
N336        C340   1.339       .  A
N337        C338   1.348   1_545  A
C338        C339   1.389       .  A
C338        H341   1.081       .  S
C339        C340   1.383       .  A
C339       C2469   1.482       .  S
C340        H342   1.082       .  S
N343        N344   1.322       .  A
N343        C347   1.349       .  A
N343       Cu351   2.088       .  S
N344        C345   1.343       .  A
N344       Cu350   2.071       .  S
C345        C346   1.384       .  A
C345        H348   1.081       .  S
C346        C347   1.390       .  A
C346       C2436   1.487       .  S
C347        H349   1.082       .  S
Cu350       N353   2.071       .  S
Cu351       N361   2.089       .  S
Cu352       N354   2.077       .  S
Cu352       N360   2.077       .  S
N353        N354   1.320       .  A
N353        C357   1.343       .  A
N354        C355   1.347       .  A
C355        C356   1.389       .  A
C355        H358   1.082       .  S
C356        C357   1.386       .  A
C356       C2519   1.486       .  S
C357        H359   1.081       .  S
N360        N361   1.323       .  A
N360        C364   1.342       .  A
N361        C362   1.349       .  A
C362        C363   1.389       .  A
C362        H365   1.081       .  S
C363        C364   1.385       .  A
C363       C2446   1.488       .  S
C364        H366   1.082       .  S
N367        N368   1.322       .  A
N367        C371   1.347       .  A
N367       Cu375   2.077       .  S
N368        C369   1.342       .  A
N368       Cu374   2.068       .  S
C369        C370   1.382       .  A
C369        H372   1.082       .  S
C370        C371   1.386       .  A
C370       C2449   1.477       .  S
C371        H373   1.082       .  S
Cu374       N377   2.067       .  S
Cu375       N385   2.076       .  S
Cu376       N378   2.071       .  S
Cu376       N384   2.072       .  S
N377        N378   1.321       .  A
N377        C381   1.345       .  A
N378        C379   1.345       .  A
C379        C380   1.384       .  A
C379        H382   1.082       .  S
C380        C381   1.382       .  A
C380       C2426   1.475       .  S
C381        H383   1.082       .  S
N384        N385   1.323       .  A
N384        C388   1.343       .  A
N385        C386   1.346       .  A
C386        C387   1.382       .  A
C386        H389   1.082       .  S
C387        C388   1.381       .  A
C387       C2466   1.472       .  S
C388        H390   1.082       .  S
O391       Cu399   2.008       .  S
O391        C401   1.277       .  A
O392       Cu399   2.011       .  S
O392        C402   1.279       .  A
O393       Cu399   2.012       .  S
O393        C403   1.278       .  A
O394       Cu399   2.009       .  S
O394        C404   1.278       .  A
O395       Cu400   2.011       .  S
O395        C404   1.278       .  A
O396       Cu400   2.016       .  S
O396        C403   1.279       .  A
O397       Cu400   2.015       .  S
O397        C402   1.277       .  A
O398       Cu400   2.013       .  S
O398        C401   1.279       .  A
Cu399      Cu400   2.368       .  S
C401       C2416   1.485       .  S
C402       C2439   1.491       .  S
C403       C2629   1.483       .  S
C404       C2406   1.478       .  S
O405       Cu413   2.012       .  S
O405        C415   1.278       .  A
O406       Cu413   2.014       .  S
O406        C416   1.277       .  A
O407       Cu413   2.018       .  S
O407        C417   1.279       .  A
O408       Cu413   2.015       .  S
O408        C418   1.279       .  A
O409       Cu414   1.999       .  S
O409        C418   1.277       .  A
O410       Cu414   1.994       .  S
O410        C417   1.277       .  A
O411       Cu414   2.007       .  S
O411        C416   1.279       .  A
O412       Cu414   2.008       .  S
O412        C415   1.278       .  A
Cu413      Cu414   2.371       .  S
C415       C2396   1.477       .  S
C416       C2459   1.484       .  S
C417       C2669   1.479       .  S
C418       C2386   1.478       .  S
O419       Cu427   2.011       .  S
O419        C429   1.278       .  A
O420       Cu427   2.009       .  S
O420        C430   1.279       .  A
O421       Cu427   2.004       .  S
O421        C431   1.277       .  A
O422       Cu427   2.000       .  S
O422        C432   1.276       .  A
O423       Cu428   2.023       .  S
O423        C432   1.279       .  A
O424       Cu428   2.017       .  S
O424        C431   1.278       .  A
O425       Cu428   2.020       .  S
O425        C430   1.278       .  A
O426       Cu428   2.019       .  S
O426        C429   1.279       .  A
Cu427      Cu428   2.372       .  S
C429       C2379   1.480       .  S
C430       C2599   1.485       .  S
C431       C2699   1.477       .  S
C432       C2369   1.473       .  S
N433        N434   1.323       .  A
N433        C437   1.348       .  A
N433       Cu441   2.091       .  S
N434        C435   1.345       .  A
N434       Cu440   2.081       .  S
C435        C436   1.386       .  A
C435        H438   1.081       .  S
C436        C437   1.389       .  A
C436       C2376   1.489       .  S
C437        H439   1.082       .  S
Cu440       N443   2.080       .  S
Cu441       N451   2.090       .  S
Cu442       N444   2.063       .  S
Cu442       N450   2.063       .  S
N443        N444   1.319       .  A
N443        C447   1.346       .  A
N444        C445   1.344       .  A
C445        C446   1.385       .  A
C445        H448   1.082       .  S
C446        C447   1.389       .  A
C446       C2356   1.485       .  S
C447        H449   1.081       .  S
N450        N451   1.323       .  A
N450        C454   1.341       .  A
N451        C452   1.350       .  A
C452        C453   1.388       .  A
C452        H455   1.082       .  S
C453        C454   1.379       .  A
C453       C2346   1.477       .  S
C454        H456   1.082       .  S
N457        N458   1.321       .  A
N457        C461   1.347       .  A
N457       Cu465   2.074       .  S
N458        C459   1.342       .  A
N458       Cu464   2.066       .  S
C459        C460   1.383       .  A
C459        H462   1.082       .  S
C460        C461   1.386       .  A
C460       C2399   1.479       .  S
C461        H463   1.081       .  S
Cu464       N467   2.064       .  S
Cu465       N475   2.074       .  S
Cu466       N468   2.071       .  S
Cu466       N474   2.071       .  S
N467        N468   1.319       .  A
N467        C471   1.343       .  A
N468        C469   1.344       .  A
C469        C470   1.389       .  A
C469        H472   1.082       .  S
C470        C471   1.387       .  A
C470       C2336   1.486       .  S
C471        H473   1.080       .  S
N474        N475   1.322       .  A
N474        C478   1.343   1_655  A
N475        C476   1.345   1_655  A
C476        C477   1.385       .  A
C476        H479   1.082       .  S
C477        C478   1.385       .  A
C477       C2326   1.481       .  S
C478        H480   1.081       .  S
N481        N482   1.323       .  A
N481        C485   1.347       .  A
N481       Cu489   2.080       .  S
N482        C483   1.342       .  A
N482       Cu488   2.075       .  S
C483        C484   1.384       .  A
C483        H486   1.081       .  S
C484        C485   1.386       .  A
C484       C2349   1.481       .  S
C485        H487   1.082       .  S
Cu488       N491   2.074       .  S
Cu489       N499   2.079       .  S
Cu490       N492   2.063       .  S
Cu490       N498   2.063       .  S
N491        N492   1.320       .  A
N491        C495   1.345       .  A
N492        C493   1.343       .  A
C493        C494   1.385       .  A
C493        H496   1.081       .  S
C494        C495   1.387       .  A
C494       C2316   1.481       .  S
C495        H497   1.082       .  S
N498        N499   1.322       .  A
N498        C502   1.341       .  A
N499        C500   1.347       .  A
C500        C501   1.387       .  A
C500        H503   1.081       .  S
C501        C502   1.382       .  A
C501       C2329   1.479       .  S
C502        H504   1.082       .  S
N505        C510   1.353       .  A
N505        C509   1.354       .  A
N505        H537   1.040       .  S
N506        C513   1.351       .  A
N506        C514   1.350       .  A
N507        C512   1.353       .  A
N507        C511   1.354       .  A
N507        H538   1.038       .  S
N508        C515   1.353       .  A
N508        C516   1.352       .  A
C509        C517   1.387       .  A
C509        C525   1.415       .  A
C510        C526   1.414       .  A
C510        C518   1.387       .  A
C511        C519   1.386       .  A
C511        C528   1.416       .  A
C512        C527   1.418       .  A
C512        C520   1.388       .  A
C513        C525   1.412       .  A
C513        C521   1.386       .  A
C514        C528   1.413       .  A
C514        C522   1.387       .  A
C515        C523   1.385       .  A
C515        C526   1.413       .  A
C516        C524   1.387       .  A
C516        C527   1.416       .  A
C517        C518   1.374       .  A
C517        H529   1.082       .  S
C518        H530   1.082       .  S
C519        C520   1.376       .  A
C519        H531   1.082       .  S
C520        H532   1.082       .  S
C521        C522   1.372       .  A
C521        H533   1.082       .  S
C522        H534   1.082       .  S
C523        C524   1.372       .  A
C523        H535   1.082       .  S
C524        H536   1.082       .  S
C525       C2306   1.490       .  S
C526       C2286   1.490       .  S
C527       C2279   1.488       .  S
C528       C2296   1.486       .  S
N539        N540   1.320       .  A
N539        C543   1.348       .  A
N539       Cu547   2.078       .  S
N540        C541   1.338       .  A
N540       Cu546   2.049       .  S
C541        C542   1.380       .  A
C541        H544   1.082       .  S
C542        C543   1.390       .  A
C542       C2259   1.479       .  S
C543        H545   1.081       .  S
Cu546       N549   2.049       .  S
Cu547       N557   2.081       .  S
Cu548       N550   2.083       .  S
Cu548       N556   2.085       .  S
N549        N550   1.319       .  A
N549        C553   1.339       .  A
N550        C551   1.349       .  A
C551        C552   1.391       .  A
C551        H554   1.082       .  S
C552        C553   1.382       .  A
C552       C2309   1.484       .  S
C553        H555   1.081       .  S
N556        N557   1.325       .  A
N556        C560   1.345   1_556  A
N557        C558   1.346   1_556  A
C558        C559   1.384       .  A
C558        H561   1.082       .  S
C559        C560   1.383       .  A
C559       C2269   1.480       .  S
C560        H562   1.082       .  S
N563        N564   1.322       .  A
N563        C567   1.345       .  A
N563       Cu571   2.075       .  S
N564        C565   1.344       .  A
N564       Cu570   2.074       .  S
C565        C566   1.384       .  A
C565        H568   1.082       .  S
C566        C567   1.384       .  A
C566       C2389   1.479       .  S
C567        H569   1.082       .  S
Cu570       N573   2.074       .  S
Cu571       N581   2.075       .  S
Cu572       N574   2.073       .  S
Cu572       N580   2.073       .  S
N573        N574   1.321       .  A
N573        C577   1.345       .  A
N574        C575   1.345       .  A
C575        C576   1.386       .  A
C575        H578   1.082       .  S
C576        C577   1.387       .  A
C576       C2299   1.484       .  S
C577        H579   1.081       .  S
N580        N581   1.322       .  A
N580        C584   1.343   1_545  A
N581        C582   1.347   1_545  A
C582        C583   1.385       .  A
C582        H585   1.082       .  S
C583        C584   1.383       .  A
C583       C2246   1.478       .  S
C584        H586   1.082       .  S
N587        N588   1.322       .  A
N587        C591   1.346       .  A
N587       Cu595   2.079       .  S
N588        C589   1.343       .  A
N588       Cu594   2.068       .  S
C589        C590   1.384       .  A
C589        H592   1.082       .  S
C590        C591   1.387       .  A
C590       C2409   1.482       .  S
C591        H593   1.081       .  S
Cu594       N597   2.067       .  S
Cu595       N605   2.077       .  S
Cu596       N598   2.063       .  S
Cu596       N604   2.063       .  S
N597        N598   1.320       .  A
N597        C601   1.345       .  A
N598        C599   1.342       .  A
C599        C600   1.384       .  A
C599        H602   1.082       .  S
C600        C601   1.385       .  A
C600       C2236   1.477       .  S
C601        H603   1.082       .  S
N604        N605   1.321       .  A
N604        C608   1.341       .  A
N605        C606   1.347       .  A
C606        C607   1.386       .  A
C606        H609   1.082       .  S
C607        C608   1.383       .  A
C607       C2226   1.479       .  S
C608        H610   1.081       .  S
N611        N612   1.323       .  A
N611        C615   1.347       .  A
N611       Cu619   2.076       .  S
N612        C613   1.341       .  A
N612       Cu618   2.070       .  S
C613        C614   1.381       .  A
C613        H616   1.082       .  S
C614        C615   1.384       .  A
C614       C2229   1.475       .  S
C615        H617   1.082       .  S
Cu618       N621   2.070       .  S
Cu619       N629   2.077       .  S
Cu620       N622   2.071       .  S
Cu620       N628   2.072       .  S
N621        N622   1.320       .  A
N621        C625   1.345       .  A
N622        C623   1.344       .  A
C623        C624   1.385       .  A
C623        H626   1.082       .  S
C624        C625   1.386       .  A
C624       C2216   1.482       .  S
C625        H627   1.081       .  S
N628        N629   1.322       .  A
N628        C632   1.342       .  A
N629        C630   1.347       .  A
C630        C631   1.386       .  A
C630        H633   1.082       .  S
C631        C632   1.384       .  A
C631       C2249   1.481       .  S
C632        H634   1.081       .  S
N635        C640   1.351       .  A
N635        C639   1.349       .  A
N635        H667   1.039       .  S
N636        C643   1.351       .  A
N636        C644   1.350       .  A
N637        C642   1.353       .  A
N637        C641   1.353       .  A
N637        H668   1.038       .  S
N638        C645   1.351       .  A
N638        C646   1.349       .  A
C639        C647   1.386       .  A
C639        C655   1.409       .  A
C640        C656   1.411       .  A
C640        C648   1.387       .  A
C641        C649   1.387       .  A
C641        C658   1.415       .  A
C642        C657   1.415       .  A
C642        C650   1.387       .  A
C643        C655   1.411       .  A
C643        C651   1.385       .  A
C644        C658   1.413       .  A
C644        C652   1.388       .  A
C645        C653   1.386       .  A
C645        C656   1.412       .  A
C646        C654   1.387       .  A
C646        C657   1.412       .  A
C647        C648   1.375       .  A
C647        H659   1.082       .  S
C648        H660   1.082       .  S
C649        C650   1.376       .  A
C649        H661   1.082       .  S
C650        H662   1.082       .  S
C651        C652   1.372       .  A
C651        H663   1.082       .  S
C652        H664   1.082       .  S
C653        C654   1.373       .  A
C653        H665   1.082       .  S
C654        H666   1.082       .  S
C655       C2256   1.480       .  S
C656       C2206   1.488       .  S
C657       C2196   1.483       .  S
C658       C2339   1.484       .  S
N669        N670   1.321       .  A
N669        C673   1.348       .  A
N669       Cu677   2.084       .  S
N670        C671   1.343       .  A
N670       Cu676   2.068       .  S
C671        C672   1.385       .  A
C671        H674   1.082       .  S
C672        C673   1.390       .  A
C672       C2176   1.488       .  S
C673        H675   1.081       .  S
Cu676       N679   2.067       .  S
Cu677       N687   2.086       .  S
Cu678       N680   2.075       .  S
Cu678       N686   2.077       .  S
N679        N680   1.321       .  A
N679        C683   1.341       .  A
N680        C681   1.349       .  A
C681        C682   1.386       .  A
C681        H684   1.082       .  S
C682        C683   1.382       .  A
C682       C2209   1.478       .  S
C683        H685   1.082       .  S
N686        N687   1.323       .  A
N686        C690   1.343       .  A
N687        C688   1.347       .  A
C688        C689   1.388   1_556  A
C688        H691   1.081       .  S
C689        C690   1.385   1_554  A
C689       C2186   1.485       .  S
C690        H692   1.082       .  S
N693        C698   1.354       .  A
N693        C697   1.353       .  A
N693        H725   1.039       .  S
N694        C701   1.352       .  A
N694        C702   1.351       .  A
N695        C700   1.353       .  A
N695        C699   1.353       .  A
N695        H726   1.039       .  S
N696        C703   1.351       .  A
N696        C704   1.350       .  A
C697        C705   1.387       .  A
C697        C713   1.416       .  A
C698        C714   1.416       .  A
C698        C706   1.387       .  A
C699        C707   1.387       .  A
C699        C716   1.415       .  A
C700        C715   1.414       .  A
C700        C708   1.387       .  A
C701        C713   1.413       .  A
C701        C709   1.386       .  A
C702        C716   1.414       .  A
C702        C710   1.387       .  A
C703        C711   1.385       .  A
C703        C714   1.411       .  A
C704        C712   1.387       .  A
C704        C715   1.413       .  A
C705        C706   1.376       .  A
C705        H717   1.082       .  S
C706        H718   1.082       .  S
C707        C708   1.376       .  A
C707        H719   1.082       .  S
C708        H720   1.082       .  S
C709        C710   1.373       .  A
C709        H721   1.082       .  S
C710        H722   1.082       .  S
C711        C712   1.373       .  A
C711        H723   1.082       .  S
C712        H724   1.082       .  S
C713       C2169   1.488       .  S
C714       C2179   1.490       .  S
C715       C2239   1.484       .  S
C716       C2359   1.487       .  S
N727        N728   1.321       .  A
N727        C731   1.348       .  A
N727       Cu735   2.083       .  S
N728        C729   1.343       .  A
N728       Cu734   2.072       .  S
C729        C730   1.387       .  A
C729        H732   1.082       .  S
C730        C731   1.391       .  A
C730       C2166   1.490       .  S
C731        H733   1.081       .  S
Cu734       N737   2.072       .  S
Cu735       N745   2.084       .  S
Cu736       N738   2.086       .  S
Cu736       N744   2.087       .  S
N737        N738   1.321       .  A
N737        C741   1.343       .  A
N738        C739   1.348       .  A
C739        C740   1.389       .  A
C739        H742   1.082       .  S
C740        C741   1.385       .  A
C740       C2289   1.486       .  S
C741        H743   1.081       .  S
N744        N745   1.324       .  A
N744        C748   1.347   1_556  A
N745        C746   1.346   1_556  A
C746        C747   1.384       .  A
C746        H749   1.082       .  S
C747        C748   1.386       .  A
C747       C2159   1.482       .  S
C748        H750   1.082       .  S
N751        N752   1.323       .  A
N751        C755   1.347   1_655  A
N751       Cu759   2.087       .  S
N752        C753   1.344   1_655  A
N752       Cu758   2.069       .  S
C753        C754   1.381       .  A
C753        H756   1.082       .  S
C754        C755   1.385       .  A
C754       C2146   1.477       .  S
C755        H757   1.082       .  S
Cu758       N761   2.067       .  S
Cu759       N769   2.087       .  S
Cu760       N762   2.072       .  S
Cu760       N768   2.072       .  S
N761        N762   1.320       .  A
N761        C765   1.343       .  A
N762        C763   1.346       .  A
C763        C764   1.385       .  A
C763        H766   1.082       .  S
C764        C765   1.384       .  A
C764       C2199   1.479       .  S
C765        H767   1.081       .  S
N768        N769   1.323       .  A
N768        C772   1.342       .  A
N769        C770   1.349       .  A
C770        C771   1.389       .  A
C770        H773   1.081       .  S
C771        C772   1.383       .  A
C771       C2419   1.484       .  S
C772        H774   1.082       .  S
N775        N776   1.320       .  A
N775        C779   1.346       .  A
N775       Cu783   2.071   1_565  S
N776        C777   1.343       .  A
N776       Cu782   2.072   1_565  S
C777        C778   1.387       .  A
C777        H780   1.082       .  S
C778        C779   1.388       .  A
C778       C2136   1.486       .  S
C779        H781   1.081       .  S
Cu782       N785   2.070       .  S
Cu783       N793   2.072       .  S
Cu784       N786   2.081       .  S
Cu784       N792   2.082       .  S
N785        N786   1.321       .  A
N785        C789   1.343       .  A
N786        C787   1.346       .  A
C787        C788   1.390       .  A
C787        H790   1.082       .  S
C788        C789   1.387       .  A
C788       C2276   1.491       .  S
C789        H791   1.079       .  S
N792        N793   1.322       .  A
N792        C796   1.346       .  A
N793        C794   1.344       .  A
C794        C795   1.384       .  A
C794        H797   1.081       .  S
C795        C796   1.387       .  A
C795       C2366   1.484       .  S
C796        H798   1.082       .  S
N799        N800   1.324       .  A
N799        C803   1.348       .  A
N799       Cu807   2.081       .  S
N800        C801   1.344       .  A
N800       Cu806   2.078       .  S
C801        C802   1.382       .  A
C801        H804   1.082       .  S
C802        C803   1.384       .  A
C802       C2139   1.476       .  S
C803        H805   1.082       .  S
Cu806       N809   2.078       .  S
Cu807       N817   2.081       .  S
Cu808       N810   2.077       .  S
Cu808       N816   2.077       .  S
N809        N810   1.321       .  A
N809        C813   1.347       .  A
N810        C811   1.345       .  A
C811        C812   1.385       .  A
C811        H814   1.082       .  S
C812        C813   1.387       .  A
C812       C2126   1.483       .  S
C813        H815   1.082       .  S
N816        N817   1.321       .  A
N816        C820   1.344       .  A
N817        C818   1.346       .  A
C818        C819   1.390       .  A
C818        H821   1.080       .  S
C819        C820   1.388       .  A
C819       C2149   1.493       .  S
C820        H822   1.082       .  S
N823        N824   1.322       .  A
N823        C827   1.348       .  A
N823       Cu831   2.085       .  S
N824        C825   1.344       .  A
N824       Cu830   2.079       .  S
C825        C826   1.387       .  A
C825        H828   1.082       .  S
C826        C827   1.389       .  A
C826       C2096   1.490       .  S
C827        H829   1.081       .  S
Cu830       N833   2.078       .  S
Cu831       N841   2.084   1_455  S
Cu832       N834   2.060       .  S
Cu832       N840   2.060   1_455  S
N833        N834   1.320       .  A
N833        C837   1.345       .  A
N834        C835   1.343       .  A
C835        C836   1.384       .  A
C835        H838   1.082       .  S
C836        C837   1.388       .  A
C836       C2116   1.481       .  S
C837        H839   1.081       .  S
N840        N841   1.321       .  A
N840        C844   1.341       .  A
N841        C842   1.347       .  A
C842        C843   1.388       .  A
C842        H845   1.081       .  S
C843        C844   1.382       .  A
C843       C2106   1.482       .  S
C844        H846   1.082       .  S
N847        N848   1.323       .  A
N847        C851   1.348       .  A
N847       Cu855   2.085       .  S
N848        C849   1.344   1_565  A
N848       Cu854   2.066       .  S
C849        C850   1.379       .  A
C849        H852   1.082       .  S
C850        C851   1.383   1_545  A
C850       C2076   1.470       .  S
C851        H853   1.082       .  S
Cu854       N857   2.065       .  S
Cu855       N865   2.086       .  S
Cu856       N858   2.076       .  S
Cu856       N864   2.078       .  S
N857        N858   1.320       .  A
N857        C861   1.342       .  A
N858        C859   1.345       .  A
C859        C860   1.389       .  A
C859        H862   1.080       .  S
C860        C861   1.387       .  A
C860       C2086   1.487       .  S
C861        H863   1.082       .  S
N864        N865   1.321       .  A
N864        C868   1.345       .  A
N865        C866   1.346       .  A
C866        C867   1.392       .  A
C866        H869   1.081       .  S
C867        C868   1.390       .  A
C867       C2066   1.496       .  S
C868        H870   1.080       .  S
N871        N872   1.322       .  A
N871        C875   1.346       .  A
N871       Cu879   2.070       .  S
N872        C873   1.343       .  A
N872       Cu878   2.071       .  S
C873        C874   1.382       .  A
C873        H876   1.082       .  S
C874        C875   1.382       .  A
C874       C2109   1.473       .  S
C875        H877   1.082       .  S
Cu878       N881   2.071       .  S
Cu879       N889   2.070       .  S
Cu880       N882   2.073       .  S
Cu880       N888   2.074       .  S
N881        N882   1.321       .  A
N881        C885   1.345       .  A
N882        C883   1.345       .  A
C883        C884   1.385       .  A
C883        H886   1.082       .  S
C884        C885   1.385       .  A
C884       C2489   1.479       .  S
C885        H887   1.082       .  S
N888        N889   1.322       .  A
N888        C892   1.344       .  A
N889        C890   1.344       .  A
C890        C891   1.384       .  A
C890        H893   1.081       .  S
C891        C892   1.384       .  A
C891       C2079   1.479       .  S
C892        H894   1.082       .  S
N895        N896   1.324       .  A
N895        C899   1.346       .  A
N895       Cu903   2.086       .  S
N896        C897   1.345       .  A
N896       Cu902   2.085       .  S
C897        C898   1.388       .  A
C897        H900   1.082       .  S
C898        C899   1.388       .  A
C898       C2036   1.490       .  S
C899        H901   1.080       .  S
Cu902       N905   2.084       .  S
Cu903       N913   2.084       .  S
Cu904       N906   2.064       .  S
Cu904       N912   2.064       .  S
N905        N906   1.320       .  A
N905        C909   1.348       .  A
N906        C907   1.342       .  A
C907        C908   1.383       .  A
C907        H910   1.081       .  S
C908        C909   1.390       .  A
C908       C2059   1.483       .  S
C909        H911   1.082       .  S
N912        N913   1.321       .  A
N912        C916   1.341       .  A
N913        C914   1.350       .  A
C914        C915   1.388       .  A
C914        H917   1.082       .  S
C915        C916   1.382       .  A
C915       C2049   1.482       .  S
C916        H918   1.082       .  S
N919        N920   1.322       .  A
N919        C923   1.345       .  A
N919       Cu927   2.076       .  S
N920        C921   1.344       .  A
N920       Cu926   2.073       .  S
C921        C922   1.384       .  A
C921        H924   1.082       .  S
C922        C923   1.385       .  A
C922       C2006   1.480       .  S
C923        H925   1.081       .  S
Cu926       N929   2.072       .  S
Cu927       N937   2.076       .  S
Cu928       N930   2.067       .  S
Cu928       N936   2.068       .  S
N929        N930   1.320       .  A
N929        C933   1.344       .  A
N930        C931   1.343       .  A
C931        C932   1.386       .  A
C931        H934   1.082       .  S
C932        C933   1.388       .  A
C932       C2026   1.485       .  S
C933        H935   1.080       .  S
N936        N937   1.322       .  A
N936        C940   1.342   1_565  A
N937        C938   1.346   1_565  A
C938        C939   1.386       .  A
C938        H941   1.081       .  S
C939        C940   1.383       .  A
C939       C2019   1.480       .  S
C940        H942   1.082       .  S
N943        N944   1.324       .  A
N943        C947   1.349       .  A
N943       Cu951   2.086       .  S
N944        C945   1.344       .  A
N944       Cu950   2.079       .  S
C945        C946   1.382       .  A
C945        H948   1.082       .  S
C946        C947   1.385       .  A
C946       C2046   1.478       .  S
C947        H949   1.082       .  S
Cu950       N953   2.078       .  S
Cu951       N961   2.086       .  S
Cu952       N954   2.061       .  S
Cu952       N960   2.061       .  S
N953        N954   1.321       .  A
N953        C957   1.346       .  A
N954        C955   1.343       .  A
C955        C956   1.382       .  A
C955        H958   1.082       .  S
C956        C957   1.386       .  A
C956       C2549   1.476       .  S
C957        H959   1.082       .  S
N960        N961   1.322       .  A
N960        C964   1.341       .  A
N961        C962   1.348       .  A
C962        C963   1.388       .  A
C962        H965   1.082       .  S
C963        C964   1.381       .  A
C963       C2016   1.478       .  S
C964        H966   1.082       .  S
N967        C972   1.351       .  A
N967        C971   1.354       .  A
N967        H999   1.038       .  S
N968        C975   1.351       .  A
N968        C976   1.349       .  A
N969        C974   1.354       .  A
N969        C973   1.353       .  A
N969       H1000   1.037       .  S
N970        C977   1.351       .  A
N970        C978   1.352       .  A
C971        C979   1.386       .  A
C971        C987   1.413       .  A
C972        C988   1.414       .  A
C972        C980   1.388       .  A
C973        C981   1.386       .  A
C973        C990   1.415       .  A
C974        C989   1.417       .  A
C974        C982   1.388       .  A
C975        C987   1.410       .  A
C975        C983   1.385       .  A
C976        C990   1.413       .  A
C976        C984   1.388       .  A
C977        C985   1.385       .  A
C977        C988   1.412       .  A
C978        C986   1.388       .  A
C978        C989   1.416       .  A
C979        C980   1.373       .  A
C979        H991   1.082       .  S
C980        H992   1.082       .  S
C981        C982   1.374       .  A
C981        H993   1.082       .  S
C982        H994   1.082       .  S
C983        C984   1.371       .  A
C983        H995   1.082       .  S
C984        H996   1.082       .  S
C985        C986   1.370       .  A
C985        H997   1.082       .  S
C986        H998   1.082       .  S
C987       C1996   1.485       .  S
C988       C1986   1.482       .  S
C989       C2089   1.487       .  S
C990       C2029   1.483       .  S
N1001      N1002   1.320       .  A
N1001      C1005   1.348       .  A
N1001     Cu1009   2.082       .  S
N1002      C1003   1.342       .  A
N1002     Cu1008   2.064       .  S
C1003      C1004   1.385       .  A
C1003      H1006   1.082       .  S
C1004      C1005   1.391       .  A
C1004      C1976   1.487       .  S
C1005      H1007   1.081       .  S
Cu1008     N1011   2.063       .  S
Cu1009     N1019   2.083       .  S
Cu1010     N1012   2.068       .  S
Cu1010     N1018   2.070       .  S
N1011      N1012   1.320       .  A
N1011      C1015   1.340       .  A
N1012      C1013   1.347       .  A
C1013      C1014   1.387       .  A
C1013      H1016   1.081       .  S
C1014      C1015   1.383       .  A
C1014      C1989   1.479       .  S
C1015      H1017   1.082       .  S
N1018      N1019   1.324       .  A
N1018      C1022   1.343       .  A
N1019      C1020   1.346       .  A
C1020      C1021   1.385       .  A
C1020      H1023   1.082       .  S
C1021      C1022   1.382       .  A
C1021      C2429   1.479       .  S
C1022      H1024   1.082       .  S
N1025      C1030   1.352       .  A
N1025      C1029   1.351       .  A
N1025      H1057   1.038       .  S
N1026      C1033   1.351       .  A
N1026      C1034   1.350       .  A
N1027      C1032   1.352       .  A
N1027      C1031   1.353       .  A
N1027      H1058   1.038       .  S
N1028      C1035   1.352       .  A
N1028      C1036   1.351       .  A
C1029      C1037   1.386       .  A
C1029      C1045   1.412       .  A
C1030      C1046   1.414       .  A
C1030      C1038   1.388       .  A
C1031      C1039   1.387       .  A
C1031      C1048   1.415       .  A
C1032      C1047   1.415       .  A
C1032      C1040   1.387       .  A
C1033      C1045   1.411       .  A
C1033      C1041   1.386       .  A
C1034      C1048   1.412       .  A
C1034      C1042   1.387       .  A
C1035      C1043   1.386       .  A
C1035      C1046   1.413       .  A
C1036      C1044   1.387       .  A
C1036      C1047   1.414       .  A
C1037      C1038   1.375       .  A
C1037      H1049   1.082       .  S
C1038      H1050   1.082       .  S
C1039      C1040   1.377       .  A
C1039      H1051   1.082       .  S
C1040      H1052   1.082       .  S
C1041      C1042   1.372       .  A
C1041      H1053   1.082       .  S
C1042      H1054   1.082       .  S
C1043      C1044   1.372       .  A
C1043      H1055   1.082       .  S
C1044      H1056   1.082       .  S
C1045      C1966   1.483       .  S
C1046      C1956   1.485       .  S
C1047      C1946   1.486       .  S
C1048      C2119   1.486       .  S
N1059      N1060   1.321       .  A
N1059      C1063   1.348       .  A
N1059     Cu1067   2.077       .  S
N1060      C1061   1.341       .  A
N1060     Cu1066   2.067       .  S
C1061      C1062   1.384       .  A
C1061      H1064   1.082       .  S
C1062      C1063   1.388       .  A
C1062      C1999   1.482       .  S
C1063      H1065   1.081       .  S
Cu1066     N1069   2.067       .  S
Cu1067     N1077   2.078       .  S
Cu1068     N1070   2.074       .  S
Cu1068     N1076   2.076       .  S
N1069      N1070   1.319       .  A
N1069      C1073   1.342       .  A
N1070      C1071   1.346       .  A
C1071      C1072   1.390       .  A
C1071      H1074   1.080       .  S
C1072      C1073   1.388       .  A
C1072      C1959   1.490       .  S
C1073      H1075   1.082       .  S
N1076      N1077   1.323       .  A
N1076      C1080   1.345       .  A
N1077      C1078   1.344       .  A
C1078      C1079   1.385       .  A
C1078      H1081   1.081       .  S
C1079      C1080   1.385       .  A
C1079      C2586   1.481       .  S
C1080      H1082   1.082       .  S
N1083      C1088   1.353       .  A
N1083      C1087   1.354       .  A
N1083      H1115   1.038       .  S
N1084      C1091   1.353       .  A
N1084      C1092   1.352       .  A
N1085      C1090   1.355       .  A
N1085      C1089   1.353       .  A
N1085      H1116   1.037       .  S
N1086      C1093   1.351       .  A
N1086      C1094   1.351       .  A
C1087      C1095   1.386       .  A
C1087      C1103   1.416       .  A
C1088      C1104   1.418       .  A
C1088      C1096   1.388       .  A
C1089      C1097   1.388       .  A
C1089      C1106   1.419       .  A
C1090      C1105   1.418       .  A
C1090      C1098   1.386       .  A
C1091      C1103   1.414       .  A
C1091      C1099   1.385       .  A
C1092      C1106   1.418       .  A
C1092      C1100   1.388       .  A
C1093      C1101   1.387       .  A
C1093      C1104   1.413       .  A
C1094      C1102   1.386       .  A
C1094      C1105   1.414       .  A
C1095      C1096   1.374       .  A
C1095      H1107   1.082       .  S
C1096      H1108   1.082       .  S
C1097      C1098   1.375       .  A
C1097      H1109   1.082       .  S
C1098      H1110   1.082       .  S
C1099      C1100   1.370       .  A
C1099      H1111   1.082       .  S
C1100      H1112   1.082       .  S
C1101      C1102   1.370       .  A
C1101      H1113   1.082       .  S
C1102      H1114   1.082       .  S
C1103      C1979   1.489       .  S
C1104      C1939   1.483       .  S
C1105      C2056   1.491       .  S
C1106      C1926   1.487       .  S
N1117      N1118   1.320       .  A
N1117      C1121   1.344       .  A
N1117     Cu1125   2.072       .  S
N1118      C1119   1.342       .  A
N1118     Cu1124   2.059       .  S
C1119      C1120   1.385       .  A
C1119      H1122   1.082       .  S
C1120      C1121   1.388       .  A
C1120      C1936   1.483       .  S
C1121      H1123   1.081       .  S
Cu1124     N1127   2.058       .  S
Cu1125     N1135   2.073       .  S
Cu1126     N1128   2.086       .  S
Cu1126     N1134   2.087       .  S
N1127      N1128   1.322       .  A
N1127      C1131   1.340       .  A
N1128      C1129   1.349       .  A
C1129      C1130   1.388       .  A
C1129      H1132   1.082       .  S
C1130      C1131   1.380       .  A
C1130      C1969   1.478       .  S
C1131      H1133   1.082       .  S
N1134      N1135   1.323       .  A
N1134      C1138   1.345       .  A
N1135      C1136   1.346       .  A
C1136      C1137   1.384       .  A
C1136      H1139   1.082       .  S
C1137      C1138   1.386       .  A
C1137      C2659   1.481       .  S
C1138      H1140   1.082       .  S
N1141      N1142   1.323       .  A
N1141      C1145   1.345       .  A
N1141     Cu1149   2.079       .  S
N1142      C1143   1.344       .  A
N1142     Cu1148   2.078       .  S
C1143      C1144   1.385       .  A
C1143      H1146   1.081       .  S
C1144      C1145   1.386       .  A
C1144      C1906   1.483       .  S
C1145      H1147   1.082       .  S
Cu1148     N1151   2.077       .  S
Cu1149     N1159   2.078       .  S
Cu1150     N1152   2.066       .  S
Cu1150     N1158   2.067       .  S
N1151      N1152   1.318       .  A
N1151      C1155   1.344       .  A
N1152      C1153   1.344       .  A
C1153      C1154   1.390       .  A
C1153      H1156   1.078       .  S
C1154      C1155   1.392       .  A
C1154      C1929   1.495       .  S
C1155      H1157   1.081       .  S
N1158      N1159   1.322       .  A
N1158      C1162   1.342       .  A
N1159      C1160   1.348       .  A
C1160      C1161   1.385       .  A
C1160      H1163   1.082       .  S
C1161      C1162   1.380       .  A
C1161      C1916   1.474       .  S
C1162      H1164   1.082       .  S
N1165      N1166   1.323       .  A
N1165      C1169   1.348       .  A
N1165     Cu1173   2.088       .  S
N1166      C1167   1.344       .  A
N1166     Cu1172   2.078       .  S
C1167      C1168   1.385       .  A
C1167      H1170   1.082       .  S
C1168      C1169   1.389       .  A
C1168      C1886   1.487       .  S
C1169      H1171   1.081       .  S
Cu1172     N1175   2.077       .  S
Cu1173     N1183   2.087       .  S
Cu1174     N1176   2.064       .  S
Cu1174     N1182   2.065       .  S
N1175      N1176   1.320       .  A
N1175      C1179   1.346       .  A
N1176      C1177   1.343       .  A
C1177      C1178   1.385       .  A
C1177      H1180   1.082       .  S
C1178      C1179   1.388       .  A
C1178      C1949   1.483       .  S
C1179      H1181   1.081       .  S
N1182      N1183   1.322       .  A
N1182      C1186   1.341   1_455  A
N1183      C1184   1.349   1_455  A
C1184      C1185   1.390       .  A
C1184      H1187   1.081       .  S
C1185      C1186   1.383       .  A
C1185      C1896   1.486       .  S
C1186      H1188   1.082       .  S
N1189      N1190   1.322       .  A
N1189      C1193   1.347       .  A
N1189     Cu1197   2.082       .  S
N1190      C1191   1.342       .  A
N1190     Cu1196   2.068       .  S
C1191      C1192   1.385       .  A
C1191      H1194   1.081       .  S
C1192      C1193   1.388       .  A
C1192      C1919   1.485       .  S
C1193      H1195   1.082       .  S
Cu1196     N1199   2.067       .  S
Cu1197     N1207   2.082       .  S
Cu1198     N1200   2.065       .  S
Cu1198     N1206   2.066       .  S
N1199      N1200   1.320       .  A
N1199      C1203   1.343       .  A
N1200      C1201   1.344       .  A
C1201      C1202   1.385       .  A
C1201      H1204   1.082       .  S
C1202      C1203   1.384       .  A
C1202      C2509   1.477       .  S
C1203      H1205   1.082       .  S
N1206      N1207   1.323       .  A
N1206      C1210   1.342       .  A
N1207      C1208   1.347       .  A
C1208      C1209   1.385       .  A
C1208      H1211   1.082       .  S
C1209      C1210   1.381       .  A
C1209      C1899   1.477       .  S
C1210      H1212   1.082       .  S
O1213     Cu1221   2.023       .  S
O1213      C1223   1.280       .  A
O1214     Cu1221   2.023       .  S
O1214      C1224   1.279       .  A
O1215     Cu1221   2.014       .  S
O1215      C1225   1.278       .  A
O1216     Cu1221   2.019       .  S
O1216      C1226   1.278       .  A
O1217     Cu1222   2.018       .  S
O1217      C1226   1.279       .  A
O1218     Cu1222   2.014       .  S
O1218      C1225   1.279       .  A
O1219     Cu1222   2.007       .  S
O1219      C1224   1.278       .  A
O1220     Cu1222   2.008       .  S
O1220      C1223   1.277       .  A
Cu1221    Cu1222   2.370       .  S
C1223      C2039   1.487       .  S
C1224      C1869   1.486       .  S
C1225      C1879   1.480       .  S
C1226      C2099   1.483       .  S
O1227     Cu1235   2.012       .  S
O1227      C1237   1.280       .  A
O1228     Cu1235   2.010       .  S
O1228      C1238   1.278       .  A
O1229     Cu1235   2.005       .  S
O1229      C1239   1.277       .  A
O1230     Cu1235   2.012       .  S
O1230      C1240   1.278       .  A
O1231     Cu1236   2.024       .  S
O1231      C1240   1.279       .  A
O1232     Cu1236   2.023       .  S
O1232      C1239   1.279       .  A
O1233     Cu1236   2.008       .  S
O1233      C1238   1.277       .  A
O1234     Cu1236   2.006       .  S
O1234      C1237   1.276       .  A
Cu1235    Cu1236   2.369       .  S
C1237      C1909   1.490       .  S
C1238      C1859   1.478       .  S
C1239      C1846   1.479       .  S
C1240      C2069   1.488       .  S
N1241      N1242   1.322       .  A
N1241      C1245   1.347       .  A
N1241     Cu1249   2.086       .  S
N1242      C1243   1.346       .  A
N1242     Cu1248   2.081       .  S
C1243      C1244   1.387       .  A
C1243      H1246   1.081       .  S
C1244      C1245   1.388       .  A
C1244      C1866   1.489       .  S
C1245      H1247   1.082       .  S
Cu1248     N1251   2.080       .  S
Cu1249     N1259   2.085       .  S
Cu1250     N1252   2.074       .  S
Cu1250     N1258   2.074       .  S
N1251      N1252   1.320       .  A
N1251      C1255   1.345       .  A
N1252      C1253   1.344       .  A
C1253      C1254   1.389       .  A
C1253      H1256   1.080       .  S
C1254      C1255   1.390       .  A
C1254      C1836   1.491       .  S
C1255      H1257   1.082       .  S
N1258      N1259   1.322       .  A
N1258      C1262   1.344   1_455  A
N1259      C1260   1.348   1_455  A
C1260      C1261   1.387       .  A
C1260      H1263   1.081       .  S
C1261      C1262   1.384       .  A
C1261      C1826   1.483       .  S
C1262      H1264   1.082       .  S
N1265      N1266   1.322       .  A
N1265      C1269   1.344       .  A
N1265     Cu1273   2.079       .  S
N1266      C1267   1.344       .  A
N1266     Cu1272   2.078       .  S
C1267      C1268   1.388       .  A
C1267      H1270   1.080       .  S
C1268      C1269   1.389       .  A
C1268      C1856   1.489       .  S
C1269      H1271   1.082       .  S
Cu1272     N1275   2.077       .  S
Cu1273     N1283   2.077       .  S
Cu1274     N1276   2.068       .  S
Cu1274     N1282   2.068       .  S
N1275      N1276   1.319       .  A
N1275      C1279   1.346       .  A
N1276      C1277   1.343       .  A
C1277      C1278   1.387       .  A
C1277      H1280   1.080       .  S
C1278      C1279   1.390       .  A
C1278      C1816   1.489       .  S
C1279      H1281   1.082       .  S
N1282      N1283   1.322       .  A
N1282      C1286   1.342   1_565  A
N1283      C1284   1.348   1_565  A
C1284      C1285   1.385       .  A
C1284      H1287   1.082       .  S
C1285      C1286   1.382       .  A
C1285      C1809   1.477       .  S
C1286      H1288   1.082       .  S
N1289      N1290   1.321       .  A
N1289      C1293   1.346       .  A
N1289     Cu1297   2.080       .  S
N1290      C1291   1.343       .  A
N1290     Cu1296   2.070       .  S
C1291      C1292   1.385       .  A
C1291      H1294   1.081       .  S
C1292      C1293   1.388       .  A
C1292      C1829   1.484       .  S
C1293      H1295   1.082       .  S
Cu1296     N1299   2.069       .  S
Cu1297     N1307   2.080       .  S
Cu1298     N1300   2.074       .  S
Cu1298     N1306   2.075       .  S
N1299      N1300   1.321       .  A
N1299      C1303   1.344       .  A
N1300      C1301   1.346       .  A
C1301      C1302   1.385       .  A
C1301      H1304   1.082       .  S
C1302      C1303   1.382       .  A
C1302      C2266   1.475       .  S
C1303      H1305   1.082       .  S
N1306      N1307   1.322       .  A
N1306      C1310   1.342       .  A
N1307      C1308   1.347       .  A
C1308      C1309   1.388       .  A
C1308      H1311   1.080       .  S
C1309      C1310   1.387       .  A
C1309      C1806   1.488       .  S
C1310      H1312   1.082       .  S
N1313      N1314   1.324       .  A
N1313      C1317   1.349       .  A
N1313     Cu1321   2.096       .  S
N1314      C1315   1.344       .  A
N1314     Cu1320   2.083       .  S
C1315      C1316   1.386       .  A
C1315      H1318   1.082       .  S
C1316      C1317   1.391       .  A
C1316      C1876   1.492       .  S
C1317      H1319   1.081       .  S
Cu1320     N1323   2.083       .  S
Cu1321     N1331   2.095       .  S
Cu1322     N1324   2.069       .  S
Cu1322     N1330   2.069       .  S
N1323      N1324   1.319       .  A
N1323      C1327   1.348       .  A
N1324      C1325   1.342       .  A
C1325      C1326   1.389       .  A
C1325      H1328   1.081       .  S
C1326      C1327   1.393       .  A
C1326      C1796   1.494       .  S
C1327      H1329   1.080       .  S
N1330      N1331   1.322       .  A
N1330      C1334   1.342       .  A
N1331      C1332   1.350       .  A
C1332      C1333   1.391       .  A
C1332      H1335   1.082       .  S
C1333      C1334   1.384       .  A
C1333      C1789   1.488       .  S
C1334      H1336   1.081       .  S
N1337      N1338   1.323       .  A
N1337      C1341   1.348       .  A
N1337     Cu1345   2.087       .  S
N1338      C1339   1.344       .  A
N1338     Cu1344   2.077       .  S
C1339      C1340   1.384       .  A
C1339      H1342   1.082       .  S
C1340      C1341   1.387       .  A
C1340      C1756   1.483       .  S
C1341      H1343   1.082       .  S
Cu1344     N1347   2.076       .  S
Cu1345     N1355   2.086       .  S
Cu1346     N1348   2.061       .  S
Cu1346     N1354   2.061       .  S
N1347      N1348   1.320       .  A
N1347      C1351   1.345       .  A
N1348      C1349   1.343       .  A
C1349      C1350   1.385       .  A
C1349      H1352   1.081       .  S
C1350      C1351   1.388       .  A
C1350      C1779   1.482       .  S
C1351      H1353   1.082       .  S
N1354      N1355   1.322       .  A
N1354      C1358   1.341   1_565  A
N1355      C1356   1.347   1_565  A
C1356      C1357   1.389       .  A
C1356      H1359   1.082       .  S
C1357      C1358   1.382       .  A
C1357      C1766   1.482       .  S
C1358      H1360   1.081       .  S
N1361      N1362   1.322       .  A
N1361      C1365   1.347       .  A
N1361     Cu1369   2.076       .  S
N1362      C1363   1.345       .  A
N1362     Cu1368   2.077       .  S
C1363      C1364   1.382       .  A
C1363      H1366   1.082       .  S
C1364      C1365   1.384       .  A
C1364      C1786   1.476       .  S
C1365      H1367   1.082       .  S
Cu1368     N1371   2.076       .  S
Cu1369     N1379   2.076       .  S
Cu1370     N1372   2.073       .  S
Cu1370     N1378   2.073       .  S
N1371      N1372   1.321       .  A
N1371      C1375   1.345       .  A
N1372      C1373   1.346       .  A
C1373      C1374   1.386       .  A
C1373      H1376   1.082       .  S
C1374      C1375   1.386       .  A
C1374      C2156   1.483       .  S
C1375      H1377   1.081       .  S
N1378      N1379   1.324       .  A
N1378      C1382   1.344       .  A
N1379      C1380   1.346       .  A
C1380      C1381   1.382       .  A
C1380      H1383   1.082       .  S
C1381      C1382   1.381       .  A
C1381      C1769   1.472       .  S
C1382      H1384   1.082       .  S
N1385      N1386   1.320       .  A
N1385      C1389   1.349       .  A
N1385     Cu1393   2.081       .  S
N1386      C1387   1.339       .  A
N1386     Cu1392   2.051       .  S
C1387      C1388   1.381       .  A
C1387      H1390   1.082       .  S
C1388      C1389   1.390       .  A
C1388      C1739   1.480       .  S
C1389      H1391   1.081       .  S
Cu1392     N1395   2.052       .  S
Cu1393     N1403   2.083   1_554  S
Cu1394     N1396   2.092       .  S
Cu1394     N1402   2.094   1_554  S
N1395      N1396   1.319       .  A
N1395      C1399   1.341       .  A
N1396      C1397   1.350       .  A
C1397      C1398   1.392       .  A
C1397      H1400   1.082       .  S
C1398      C1399   1.382       .  A
C1398      C1749   1.486       .  S
C1399      H1401   1.081       .  S
N1402      N1403   1.325       .  A
N1402      C1406   1.347       .  A
N1403      C1404   1.346       .  A
C1404      C1405   1.385       .  A
C1404      H1407   1.082       .  S
C1405      C1406   1.388       .  A
C1405      C2129   1.488       .  S
C1406      H1408   1.081       .  S
N1409      C1414   1.351       .  A
N1409      C1413   1.352       .  A
N1409      H1441   1.039       .  S
N1410      C1417   1.352       .  A
N1410      C1418   1.349       .  A
N1411      C1416   1.354       .  A
N1411      C1415   1.354       .  A
N1411      H1442   1.038       .  S
N1412      C1419   1.352       .  A
N1412      C1420   1.352       .  A
C1413      C1421   1.387       .  A
C1413      C1429   1.413       .  A
C1414      C1430   1.412       .  A
C1414      C1422   1.387       .  A
C1415      C1423   1.388       .  A
C1415      C1432   1.418       .  A
C1416      C1431   1.416       .  A
C1416      C1424   1.387       .  A
C1417      C1429   1.413       .  A
C1417      C1425   1.386       .  A
C1418      C1432   1.414       .  A
C1418      C1426   1.387       .  A
C1419      C1427   1.386       .  A
C1419      C1430   1.414       .  A
C1420      C1428   1.387       .  A
C1420      C1431   1.415       .  A
C1421      C1422   1.376       .  A
C1421      H1433   1.082       .  S
C1422      H1434   1.082       .  S
C1423      C1424   1.377       .  A
C1423      H1435   1.082       .  S
C1424      H1436   1.082       .  S
C1425      C1426   1.375       .  A
C1425      H1437   1.082       .  S
C1426      H1438   1.082       .  S
C1427      C1428   1.371       .  A
C1427      H1439   1.082       .  S
C1428      H1440   1.082       .  S
C1429      C1746   1.491       .  S
C1430      C1726   1.488       .  S
C1431      C1839   1.488       .  S
C1432      C1716   1.487       .  S
N1443      N1444   1.320       .  A
N1443      C1447   1.348       .  A
N1443     Cu1451   2.078       .  S
N1444      C1445   1.340       .  A
N1444     Cu1450   2.063       .  S
C1445      C1446   1.384       .  A
C1445      H1448   1.082       .  S
C1446      C1447   1.390       .  A
C1446      C1706   1.484       .  S
C1447      H1449   1.081       .  S
Cu1450     N1453   2.062       .  S
Cu1451     N1461   2.080   1_554  S
Cu1452     N1454   2.083       .  S
Cu1452     N1460   2.084   1_554  S
N1453      N1454   1.319       .  A
N1453      C1457   1.341       .  A
N1454      C1455   1.348       .  A
C1455      C1456   1.393       .  A
C1455      H1458   1.082       .  S
C1456      C1457   1.387       .  A
C1456      C1699   1.492       .  S
C1457      H1459   1.079       .  S
N1460      N1461   1.324       .  A
N1460      C1464   1.345       .  A
N1461      C1462   1.345       .  A
C1462      C1463   1.386       .  A
C1462      H1465   1.082       .  S
C1463      C1464   1.387       .  A
C1463      C2219   1.486       .  S
C1464      H1466   1.081       .  S
N1467      C1472   1.354       .  A
N1467      C1471   1.354       .  A
N1467      H1499   1.038       .  S
N1468      C1475   1.350       .  A
N1468      C1476   1.350       .  A
N1469      C1474   1.353       .  A
N1469      C1473   1.355       .  A
N1469      H1500   1.036       .  S
N1470      C1477   1.354       .  A
N1470      C1478   1.352       .  A
C1471      C1479   1.386       .  A
C1471      C1487   1.415       .  A
C1472      C1488   1.417       .  A
C1472      C1480   1.389       .  A
C1473      C1481   1.387       .  A
C1473      C1490   1.417       .  A
C1474      C1489   1.418       .  A
C1474      C1482   1.388       .  A
C1475      C1487   1.410       .  A
C1475      C1483   1.385       .  A
C1476      C1490   1.414       .  A
C1476      C1484   1.387       .  A
C1477      C1485   1.384       .  A
C1477      C1488   1.414       .  A
C1478      C1486   1.389       .  A
C1478      C1489   1.420       .  A
C1479      C1480   1.370       .  A
C1479      H1491   1.082       .  S
C1480      H1492   1.082       .  S
C1481      C1482   1.376       .  A
C1481      H1493   1.082       .  S
C1482      H1494   1.082       .  S
C1483      C1484   1.372       .  A
C1483      H1495   1.082       .  S
C1484      H1496   1.082       .  S
C1485      C1486   1.371       .  A
C1485      H1497   1.082       .  S
C1486      H1498   1.082       .  S
C1487      C1736   1.483       .  S
C1488      C1696   1.489       .  S
C1489      C1819   1.487       .  S
C1490      C1776   1.488       .  S
N1501      C1506   1.354       .  A
N1501      C1505   1.353       .  A
N1501      H1533   1.039       .  S
N1502      C1509   1.354       .  A
N1502      C1510   1.354       .  A
N1503      C1508   1.356       .  A
N1503      C1507   1.355       .  A
N1503      H1534   1.036       .  S
N1504      C1511   1.351       .  A
N1504      C1512   1.350       .  A
C1505      C1513   1.387       .  A
C1505      C1521   1.413       .  A
C1506      C1522   1.415       .  A
C1506      C1514   1.388       .  A
C1507      C1515   1.389       .  A
C1507      C1524   1.424       .  A
C1508      C1523   1.419       .  A
C1508      C1516   1.385       .  A
C1509      C1521   1.415       .  A
C1509      C1517   1.385       .  A
C1510      C1524   1.421       .  A
C1510      C1518   1.389       .  A
C1511      C1519   1.386       .  A
C1511      C1522   1.411       .  A
C1512      C1520   1.387       .  A
C1512      C1523   1.413       .  A
C1513      C1514   1.373       .  A
C1513      H1525   1.082       .  S
C1514      H1526   1.082       .  S
C1515      C1516   1.377       .  A
C1515      H1527   1.081       .  S
C1516      H1528   1.082       .  S
C1517      C1518   1.369       .  A
C1517      H1529   1.082       .  S
C1518      H1530   1.081       .  S
C1519      C1520   1.372       .  A
C1519      H1531   1.082       .  S
C1520      H1532   1.082       .  S
C1521      C1686   1.490       .  S
C1522      C1709   1.489       .  S
C1523      C1676   1.490       .  S
C1524      C1799   1.495       .  S
N1535      N1536   1.320       .  A
N1535      C1539   1.349       .  A
N1535     Cu1543   2.086       .  S
N1536      C1537   1.340       .  A
N1536     Cu1542   2.054       .  S
C1537      C1538   1.381       .  A
C1537      H1540   1.081       .  S
C1538      C1539   1.391       .  A
C1538      C1689   1.482       .  S
C1539      H1541   1.082       .  S
Cu1542     N1545   2.054       .  S
Cu1543     N1553   2.087       .  S
Cu1544     N1546   2.077       .  S
Cu1544     N1552   2.079       .  S
N1545      N1546   1.319       .  A
N1545      C1549   1.340       .  A
N1546      C1547   1.348       .  A
C1547      C1548   1.390       .  A
C1547      H1550   1.081       .  S
C1548      C1549   1.383       .  A
C1548      C1729   1.482       .  S
C1549      H1551   1.082       .  S
N1552      N1553   1.325       .  A
N1552      C1556   1.343   1_554  A
N1553      C1554   1.347   1_554  A
C1554      C1555   1.387       .  A
C1554      H1557   1.081       .  S
C1555      C1556   1.384       .  A
C1555      C2319   1.483       .  S
C1556      H1558   1.082       .  S
N1559      N1560   1.323       .  A
N1559      C1563   1.347       .  A
N1559     Cu1567   2.081       .  S
N1560      C1561   1.346       .  A
N1560     Cu1566   2.085       .  S
C1561      C1562   1.387       .  A
C1561      H1564   1.082       .  S
C1562      C1563   1.386       .  A
C1562      C1849   1.485       .  S
C1563      H1565   1.082       .  S
Cu1566     N1569   2.085       .  S
Cu1567     N1577   2.082       .  S
Cu1568     N1570   2.077       .  S
Cu1568     N1576   2.077       .  S
N1569      N1570   1.321       .  A
N1569      C1573   1.346       .  A
N1570      C1571   1.347       .  A
C1571      C1572   1.388       .  A
C1571      H1574   1.081       .  S
C1572      C1573   1.389       .  A
C1572      C1679   1.490       .  S
C1573      H1575   1.082       .  S
N1576      N1577   1.323       .  A
N1576      C1580   1.344       .  A
N1577      C1578   1.348       .  A
C1578      C1579   1.384       .  A
C1578      H1581   1.082       .  S
C1579      C1580   1.382       .  A
C1579      C1669   1.476       .  S
C1580      H1582   1.082       .  S
N1583      N1584   1.321       .  A
N1583      C1587   1.347       .  A
N1583     Cu1591   2.079       .  S
N1584      C1585   1.342       .  A
N1584     Cu1590   2.070       .  S
C1585      C1586   1.385       .  A
C1585      H1588   1.081       .  S
C1586      C1587   1.387       .  A
C1586      C1649   1.484       .  S
C1587      H1589   1.082       .  S
Cu1590     N1593   2.070       .  S
Cu1591     N1601   2.079       .  S
Cu1592     N1594   2.075       .  S
Cu1592     N1600   2.076       .  S
N1593      N1594   1.320       .  A
N1593      C1597   1.344       .  A
N1594      C1595   1.345       .  A
C1595      C1596   1.389       .  A
C1595      H1598   1.082       .  S
C1596      C1597   1.387       .  A
C1596      C1719   1.487       .  S
C1597      H1599   1.081       .  S
N1600      N1601   1.322       .  A
N1600      C1604   1.344   1_455  A
N1601      C1602   1.346   1_455  A
C1602      C1603   1.387       .  A
C1602      H1605   1.081       .  S
C1603      C1604   1.386       .  A
C1603      C1656   1.486       .  S
C1604      H1606   1.082       .  S
N1607      N1608   1.323       .  A
N1607      C1611   1.349       .  A
N1607     Cu1615   2.087       .  S
N1608      C1609   1.342       .  A
N1608     Cu1614   2.073       .  S
C1609      C1610   1.384       .  A
C1609      H1612   1.081       .  S
C1610      C1611   1.389       .  A
C1610      C1666   1.484       .  S
C1611      H1613   1.082       .  S
Cu1614     N1617   2.073       .  S
Cu1615     N1625   2.087       .  S
Cu1616     N1618   2.075       .  S
Cu1616     N1624   2.075       .  S
N1617      N1618   1.319       .  A
N1617      C1621   1.345       .  A
N1618      C1619   1.345       .  A
C1619      C1620   1.389       .  A
C1619      H1622   1.080       .  S
C1620      C1621   1.388       .  A
C1620      C2189   1.489       .  S
C1621      H1623   1.082       .  S
N1624      N1625   1.324       .  A
N1624      C1628   1.344       .  A
N1625      C1626   1.348       .  A
C1626      C1627   1.386       .  A
C1626      H1629   1.082       .  S
C1627      C1628   1.382       .  A
C1627      C1659   1.478       .  S
C1628      H1630   1.082       .  S
O1631     Cu1639   2.021       .  S
O1631      C1641   1.279       .  A
O1632     Cu1639   2.017       .  S
O1632      C1642   1.279       .  A
O1633     Cu1639   2.011       .  S
O1633      C1643   1.279       .  A
O1634     Cu1639   2.021       .  S
O1634      C1644   1.278       .  A
O1635     Cu1640   1.999       .  S
O1635      C1644   1.277       .  A
O1636     Cu1640   2.004       .  S
O1636      C1643   1.276       .  A
O1637     Cu1640   2.011       .  S
O1637      C1642   1.277       .  A
O1638     Cu1640   2.011       .  S
O1638      C1641   1.277       .  A
Cu1639    Cu1640   2.369       .  S
C1641      C1759   1.477       .  S
C1642      C1889   1.491       .  S
C1643      C2009   1.486       .  S
C1644      C1646   1.478       .  S
C1645      C1646   1.402       .  A
C1645      C1650   1.396       .  A
C1645      H1652   1.084       .  S
C1646      C1647   1.411       .  A
C1647      C1648   1.403       .  A
C1647     Br1654   1.919       .  S
C1648      C1649   1.407       .  A
C1648      H1653   1.083       .  S
C1649      C1650   1.413       .  A
C1650     Br1651   1.921       .  S
C1655      C1656   1.406       .  A
C1655      C1660   1.398       .  A
C1655      H1662   1.083       .  S
C1656      C1657   1.415       .  A
C1657      C1658   1.402       .  A
C1657     Br1664   1.919       .  S
C1658      C1659   1.402       .  A
C1658      H1663   1.084       .  S
C1659      C1660   1.409       .  A
C1660     Br1661   1.920       .  S
C1665      C1666   1.406       .  A
C1665      C1670   1.402       .  A
C1665      H1672   1.083       .  S
C1666      C1667   1.413       .  A
C1667      C1668   1.399       .  A
C1667     Br1674   1.920       .  S
C1668      C1669   1.401       .  A
C1668      H1673   1.084       .  S
C1669      C1670   1.408       .  A
C1670     Br1671   1.919       .  S
C1675      C1676   1.401       .  A
C1675      C1680   1.403       .  A
C1675      H1682   1.083       .  S
C1676      C1677   1.407       .  A
C1677      C1678   1.398       .  A
C1677     Br1684   1.919       .  S
C1678      C1679   1.406       .  A
C1678      H1683   1.083       .  S
C1679      C1680   1.417       .  A
C1680     Br1681   1.919       .  S
C1685      C1686   1.401       .  A
C1685      C1690   1.397       .  A
C1685      H1692   1.084       .  S
C1686      C1687   1.409       .  A
C1687      C1688   1.401       .  A
C1687     Br1694   1.919       .  S
C1688      C1689   1.405       .  A
C1688      H1693   1.083       .  S
C1689      C1690   1.415       .  A
C1690     Br1691   1.921       .  S
C1695      C1696   1.399       .  A
C1695      C1700   1.396       .  A
C1695      H1702   1.084       .  S
C1696      C1697   1.406       .  A
C1697      C1698   1.402       .  A
C1697     Br1704   1.918       .  S
C1698      C1699   1.410       .  A
C1698      H1703   1.082       .  S
C1699      C1700   1.418       .  A
C1700     Br1701   1.920       .  S
C1705      C1706   1.406       .  A
C1705      C1710   1.394       .  A
C1705      H1712   1.083       .  S
C1706      C1707   1.414       .  A
C1707      C1708   1.402       .  A
C1707     Br1714   1.919       .  S
C1708      C1709   1.404       .  A
C1708      H1713   1.084       .  S
C1709      C1710   1.408       .  A
C1710     Br1711   1.921       .  S
C1715      C1716   1.401       .  A
C1715      C1720   1.401       .  A
C1715      H1722   1.083       .  S
C1716      C1717   1.407       .  A
C1717      C1718   1.397       .  A
C1717     Br1724   1.920       .  S
C1718      C1719   1.406       .  A
C1718      H1723   1.083       .  S
C1719      C1720   1.416       .  A
C1720     Br1721   1.919       .  S
C1725      C1726   1.404       .  A
C1725      C1730   1.402       .  A
C1725      H1732   1.083       .  S
C1726      C1727   1.408       .  A
C1727      C1728   1.394       .  A
C1727     Br1734   1.922       .  S
C1728      C1729   1.405       .  A
C1728      H1733   1.083       .  S
C1729      C1730   1.413       .  A
C1730     Br1731   1.919       .  S
C1735      C1736   1.402       .  A
C1735      C1740   1.400       .  A
C1735      H1742   1.083       .  S
C1736      C1737   1.406       .  A
C1737      C1738   1.394       .  A
C1737     Br1744   1.921       .  S
C1738      C1739   1.406       .  A
C1738      H1743   1.083       .  S
C1739      C1740   1.412       .  A
C1740     Br1741   1.918       .  S
C1745      C1746   1.402       .  A
C1745      C1750   1.399       .  A
C1745      H1752   1.084       .  S
C1746      C1747   1.409       .  A
C1747      C1748   1.402       .  A
C1747     Br1754   1.918       .  S
C1748      C1749   1.406       .  A
C1748      H1753   1.083       .  S
C1749      C1750   1.416       .  A
C1750     Br1751   1.922       .  S
C1755      C1756   1.405       .  A
C1755      C1760   1.402       .  A
C1755      H1762   1.083       .  S
C1756      C1757   1.412       .  A
C1757      C1758   1.400       .  A
C1757     Br1764   1.920       .  S
C1758      C1759   1.402       .  A
C1758      H1763   1.084       .  S
C1759      C1760   1.409       .  A
C1760     Br1761   1.919       .  S
C1765      C1766   1.406       .  A
C1765      C1770   1.399       .  A
C1765      H1772   1.083       .  S
C1766      C1767   1.415       .  A
C1767      C1768   1.398       .  A
C1767     Br1774   1.921       .  S
C1768      C1769   1.400       .  A
C1768      H1773   1.084       .  S
C1769      C1770   1.407       .  A
C1770     Br1771   1.918       .  S
C1775      C1776   1.402       .  A
C1775      C1780   1.400       .  A
C1775      H1782   1.083       .  S
C1776      C1777   1.409       .  A
C1777      C1778   1.397       .  A
C1777     Br1784   1.919       .  S
C1778      C1779   1.404       .  A
C1778      H1783   1.083       .  S
C1779      C1780   1.414       .  A
C1780     Br1781   1.920       .  S
C1785      C1786   1.400       .  A
C1785      C1790   1.399       .  A
C1785      H1792   1.084       .  S
C1786      C1787   1.407       .  A
C1787      C1788   1.403       .  A
C1787     Br1794   1.918       .  S
C1788      C1789   1.407       .  A
C1788      H1793   1.083       .  S
C1789      C1790   1.415       .  A
C1790     Br1791   1.920       .  S
C1795      C1796   1.409       .  A
C1795      C1800   1.397       .  A
C1795      H1802   1.082       .  S
C1796      C1797   1.417       .  A
C1797      C1798   1.403       .  A
C1797     Br1804   1.919       .  S
C1798      C1799   1.404       .  A
C1798      H1803   1.083       .  S
C1799      C1800   1.408       .  A
C1800     Br1801   1.920       .  S
C1805      C1806   1.405       .  A
C1805      C1810   1.395       .  A
C1805      H1812   1.083       .  S
C1806      C1807   1.417       .  A
C1807      C1808   1.404       .  A
C1807     Br1814   1.919       .  S
C1808      C1809   1.402       .  A
C1808      H1813   1.084       .  S
C1809      C1810   1.408       .  A
C1810     Br1811   1.921       .  S
C1815      C1816   1.409       .  A
C1815      C1820   1.400       .  A
C1815      H1822   1.083       .  S
C1816      C1817   1.418       .  A
C1817      C1818   1.397       .  A
C1817     Br1824   1.920       .  S
C1818      C1819   1.399       .  A
C1818      H1823   1.084       .  S
C1819      C1820   1.406       .  A
C1820     Br1821   1.919       .  S
C1825      C1826   1.404       .  A
C1825      C1830   1.400       .  A
C1825      H1832   1.084       .  S
C1826      C1827   1.412       .  A
C1827      C1828   1.401       .  A
C1827     Br1834   1.918       .  S
C1828      C1829   1.405       .  A
C1828      H1833   1.083       .  S
C1829      C1830   1.412       .  A
C1830     Br1831   1.921       .  S
C1835      C1836   1.408       .  A
C1835      C1840   1.398       .  A
C1835      H1842   1.082       .  S
C1836      C1837   1.418       .  A
C1837      C1838   1.401       .  A
C1837     Br1844   1.920       .  S
C1838      C1839   1.401       .  A
C1838      H1843   1.084       .  S
C1839      C1840   1.406       .  A
C1840     Br1841   1.919       .  S
C1845      C1846   1.403       .  A
C1845      C1850   1.399       .  A
C1845      H1852   1.084       .  S
C1846      C1847   1.409       .  A
C1847      C1848   1.403       .  A
C1847     Br1854   1.919       .  S
C1848      C1849   1.407       .  A
C1848      H1853   1.083       .  S
C1849      C1850   1.412       .  A
C1850     Br1851   1.920       .  S
C1855      C1856   1.407       .  A
C1855      C1860   1.398       .  A
C1855      H1862   1.082       .  S
C1856      C1857   1.415       .  A
C1857      C1858   1.400       .  A
C1857     Br1864   1.921       .  S
C1858      C1859   1.403       .  A
C1858      H1863   1.084       .  S
C1859      C1860   1.409       .  A
C1860     Br1861   1.918       .  S
C1865      C1866   1.406       .  A
C1865      C1870   1.402       .  A
C1865      H1872   1.083       .  S
C1866      C1867   1.415       .  A
C1867      C1868   1.400       .  A
C1867     Br1874   1.920       .  S
C1868      C1869   1.405       .  A
C1868      H1873   1.084       .  S
C1869      C1870   1.412       .  A
C1870     Br1871   1.920       .  S
C1875      C1876   1.408       .  A
C1875      C1880   1.400       .  A
C1875      H1882   1.083       .  S
C1876      C1877   1.416       .  A
C1877      C1878   1.403       .  A
C1877     Br1884   1.919       .  S
C1878      C1879   1.404       .  A
C1878      H1883   1.084       .  S
C1879      C1880   1.407       .  A
C1880     Br1881   1.920       .  S
C1885      C1886   1.404       .  A
C1885      C1890   1.400       .  A
C1885      H1892   1.083       .  S
C1886      C1887   1.411       .  A
C1887      C1888   1.402       .  A
C1887     Br1894   1.919       .  S
C1888      C1889   1.408       .  A
C1888      H1893   1.083       .  S
C1889      C1890   1.416       .  A
C1890     Br1891   1.922       .  S
C1895      C1896   1.406       .  A
C1895      C1900   1.396       .  A
C1895      H1902   1.083       .  S
C1896      C1897   1.414       .  A
C1897      C1898   1.402       .  A
C1897     Br1904   1.919       .  S
C1898      C1899   1.403       .  A
C1898      H1903   1.084       .  S
C1899      C1900   1.409       .  A
C1900     Br1901   1.921       .  S
C1905      C1906   1.403       .  A
C1905      C1910   1.400       .  A
C1905      H1912   1.083       .  S
C1906      C1907   1.411       .  A
C1907      C1908   1.398       .  A
C1907     Br1914   1.920       .  S
C1908      C1909   1.407       .  A
C1908      H1913   1.083       .  S
C1909      C1910   1.418       .  A
C1910     Br1911   1.923       .  S
C1915      C1916   1.401       .  A
C1915      C1920   1.398       .  A
C1915      H1922   1.084       .  S
C1916      C1917   1.407       .  A
C1917      C1918   1.401       .  A
C1917     Br1924   1.918       .  S
C1918      C1919   1.407       .  A
C1918      H1923   1.083       .  S
C1919      C1920   1.414       .  A
C1920     Br1921   1.921       .  S
C1925      C1926   1.400       .  A
C1925      C1930   1.400       .  A
C1925      H1932   1.084       .  S
C1926      C1927   1.404       .  A
C1927      C1928   1.397       .  A
C1927     Br1934   1.919       .  S
C1928      C1929   1.410       .  A
C1928      H1933   1.082       .  S
C1929      C1930   1.421       .  A
C1930     Br1931   1.920       .  S
C1935      C1936   1.407       .  A
C1935      C1940   1.396       .  A
C1935      H1942   1.082       .  S
C1936      C1937   1.414       .  A
C1937      C1938   1.399       .  A
C1937     Br1944   1.919       .  S
C1938      C1939   1.400       .  A
C1938      H1943   1.084       .  S
C1939      C1940   1.406       .  A
C1940     Br1941   1.920       .  S
C1945      C1946   1.402       .  A
C1945      C1950   1.401       .  A
C1945      H1952   1.083       .  S
C1946      C1947   1.406       .  A
C1947      C1948   1.397       .  A
C1947     Br1954   1.919       .  S
C1948      C1949   1.406       .  A
C1948      H1953   1.083       .  S
C1949      C1950   1.414       .  A
C1950     Br1951   1.919       .  S
C1955      C1956   1.401       .  A
C1955      C1960   1.401       .  A
C1955      H1962   1.084       .  S
C1956      C1957   1.404       .  A
C1957      C1958   1.396       .  A
C1957     Br1964   1.919       .  S
C1958      C1959   1.409       .  A
C1958      H1963   1.082       .  S
C1959      C1960   1.417       .  A
C1960     Br1961   1.919       .  S
C1965      C1966   1.399       .  A
C1965      C1970   1.396       .  A
C1965      H1972   1.084       .  S
C1966      C1967   1.407       .  A
C1967      C1968   1.401       .  A
C1967     Br1974   1.918       .  S
C1968      C1969   1.405       .  A
C1968      H1973   1.083       .  S
C1969      C1970   1.413       .  A
C1970     Br1971   1.921       .  S
C1975      C1976   1.407       .  A
C1975      C1980   1.397       .  A
C1975      H1982   1.083       .  S
C1976      C1977   1.415       .  A
C1977      C1978   1.403       .  A
C1977     Br1984   1.919       .  S
C1978      C1979   1.402       .  A
C1978      H1983   1.083       .  S
C1979      C1980   1.405       .  A
C1980     Br1981   1.919       .  S
C1985      C1986   1.402       .  A
C1985      C1990   1.400       .  A
C1985      H1992   1.084       .  S
C1986      C1987   1.405       .  A
C1987      C1988   1.394       .  A
C1987     Br1994   1.920       .  S
C1988      C1989   1.406       .  A
C1988      H1993   1.083       .  S
C1989      C1990   1.413       .  A
C1990     Br1991   1.919       .  S
C1995      C1996   1.402       .  A
C1995      C2000   1.401       .  A
C1995      H2002   1.083       .  S
C1996      C1997   1.406       .  A
C1997      C1998   1.395       .  A
C1997     Br2004   1.919       .  S
C1998      C1999   1.406       .  A
C1998      H2003   1.083       .  S
C1999      C2000   1.413       .  A
C2000     Br2001   1.918       .  S
C2005      C2006   1.402       .  A
C2005      C2010   1.398       .  A
C2005      H2012   1.083       .  S
C2006      C2007   1.410       .  A
C2007      C2008   1.399       .  A
C2007     Br2014   1.920       .  S
C2008      C2009   1.407       .  A
C2008      H2013   1.083       .  S
C2009      C2010   1.416       .  A
C2010     Br2011   1.922       .  S
C2015      C2016   1.403       .  A
C2015      C2020   1.401       .  A
C2015      H2022   1.083       .  S
C2016      C2017   1.411       .  A
C2017      C2018   1.396       .  A
C2017     Br2024   1.921       .  S
C2018      C2019   1.403       .  A
C2018      H2023   1.084       .  S
C2019      C2020   1.413       .  A
C2020     Br2021   1.919       .  S
C2025      C2026   1.409       .  A
C2025      C2030   1.398       .  A
C2025      H2032   1.083       .  S
C2026      C2027   1.416       .  A
C2027      C2028   1.396       .  A
C2027     Br2034   1.919       .  S
C2028      C2029   1.400       .  A
C2028      H2033   1.084       .  S
C2029      C2030   1.404       .  A
C2030     Br2031   1.919       .  S
C2035      C2036   1.406       .  A
C2035      C2040   1.399       .  A
C2035      H2042   1.083       .  S
C2036      C2037   1.414       .  A
C2037      C2038   1.402       .  A
C2037     Br2044   1.920       .  S
C2038      C2039   1.406       .  A
C2038      H2043   1.084       .  S
C2039      C2040   1.413       .  A
C2040     Br2041   1.919       .  S
C2045      C2046   1.401       .  A
C2045      C2050   1.397       .  A
C2045      H2052   1.084       .  S
C2046      C2047   1.410       .  A
C2047      C2048   1.404       .  A
C2047     Br2054   1.918       .  S
C2048      C2049   1.405       .  A
C2048      H2053   1.083       .  S
C2049      C2050   1.412       .  A
C2050     Br2051   1.921       .  S
C2055      C2056   1.401       .  A
C2055      C2060   1.400       .  A
C2055      H2062   1.083       .  S
C2056      C2057   1.411       .  A
C2057      C2058   1.400       .  A
C2057     Br2064   1.920       .  S
C2058      C2059   1.405       .  A
C2058      H2063   1.083       .  S
C2059      C2060   1.414       .  A
C2060     Br2061   1.920       .  S
C2065      C2066   1.408       .  A
C2065      C2070   1.401       .  A
C2065      H2072   1.082       .  S
C2066      C2067   1.417       .  A
C2067      C2068   1.402       .  A
C2067     Br2074   1.920       .  S
C2068      C2069   1.405       .  A
C2068      H2073   1.084       .  S
C2069      C2070   1.411       .  A
C2070     Br2071   1.918       .  S
C2075      C2076   1.400       .  A
C2075      C2080   1.400       .  A
C2075      H2082   1.084       .  S
C2076      C2077   1.406       .  A
C2077      C2078   1.398       .  A
C2077     Br2084   1.918       .  S
C2078      C2079   1.404       .  A
C2078      H2083   1.083       .  S
C2079      C2080   1.414       .  A
C2080     Br2081   1.920       .  S
C2085      C2086   1.408       .  A
C2085      C2090   1.396       .  A
C2085      H2092   1.082       .  S
C2086      C2087   1.415       .  A
C2087      C2088   1.400       .  A
C2087     Br2094   1.920       .  S
C2088      C2089   1.402       .  A
C2088      H2093   1.084       .  S
C2089      C2090   1.405       .  A
C2090     Br2091   1.920       .  S
C2095      C2096   1.406       .  A
C2095      C2100   1.398       .  A
C2095      H2102   1.083       .  S
C2096      C2097   1.415       .  A
C2097      C2098   1.405       .  A
C2097     Br2104   1.920       .  S
C2098      C2099   1.405       .  A
C2098      H2103   1.084       .  S
C2099      C2100   1.409       .  A
C2100     Br2101   1.916       .  S
C2105      C2106   1.406       .  A
C2105      C2110   1.396       .  A
C2105      H2112   1.083       .  S
C2106      C2107   1.413       .  A
C2107      C2108   1.400       .  A
C2107     Br2114   1.919       .  S
C2108      C2109   1.402       .  A
C2108      H2113   1.084       .  S
C2109      C2110   1.407       .  A
C2110     Br2111   1.920       .  S
C2115      C2116   1.406       .  A
C2115      C2120   1.397       .  A
C2115      H2122   1.083       .  S
C2116      C2117   1.413       .  A
C2117      C2118   1.400       .  A
C2117     Br2124   1.919       .  S
C2118      C2119   1.402       .  A
C2118      H2123   1.083       .  S
C2119      C2120   1.408       .  A
C2120     Br2121   1.920       .  S
C2125      C2126   1.403       .  A
C2125      C2130   1.400       .  A
C2125      H2132   1.084       .  S
C2126      C2127   1.411       .  A
C2127      C2128   1.402       .  A
C2127     Br2134   1.919       .  S
C2128      C2129   1.407       .  A
C2128      H2133   1.083       .  S
C2129      C2130   1.414       .  A
C2130     Br2131   1.919       .  S
C2135      C2136   1.405       .  A
C2135      C2140   1.397       .  A
C2135      H2142   1.083       .  S
C2136      C2137   1.416       .  A
C2137      C2138   1.402       .  A
C2137     Br2144   1.920       .  S
C2138      C2139   1.402       .  A
C2138      H2143   1.084       .  S
C2139      C2140   1.407       .  A
C2140     Br2141   1.919       .  S
C2145      C2146   1.400       .  A
C2145      C2150   1.402       .  A
C2145      H2152   1.084       .  S
C2146      C2147   1.408       .  A
C2147      C2148   1.399       .  A
C2147     Br2154   1.920       .  S
C2148      C2149   1.408       .  A
C2148      H2153   1.082       .  S
C2149      C2150   1.418       .  A
C2150     Br2151   1.919       .  S
C2155      C2156   1.404       .  A
C2155      C2160   1.401       .  A
C2155      H2162   1.083       .  S
C2156      C2157   1.413       .  A
C2157      C2158   1.400       .  A
C2157     Br2164   1.920       .  S
C2158      C2159   1.403       .  A
C2158      H2163   1.083       .  S
C2159      C2160   1.411       .  A
C2160     Br2161   1.919       .  S
C2165      C2166   1.408       .  A
C2165      C2170   1.398       .  A
C2165      H2172   1.083       .  S
C2166      C2167   1.416       .  A
C2167      C2168   1.402       .  A
C2167     Br2174   1.918       .  S
C2168      C2169   1.401       .  A
C2168      H2173   1.083       .  S
C2169      C2170   1.406       .  A
C2170     Br2171   1.919       .  S
C2175      C2176   1.407       .  A
C2175      C2180   1.399       .  A
C2175      H2182   1.083       .  S
C2176      C2177   1.415       .  A
C2177      C2178   1.401       .  A
C2177     Br2184   1.918       .  S
C2178      C2179   1.402       .  A
C2178      H2183   1.084       .  S
C2179      C2180   1.408       .  A
C2180     Br2181   1.920       .  S
C2185      C2186   1.404       .  A
C2185      C2190   1.399       .  A
C2185      H2192   1.083       .  S
C2186      C2187   1.412       .  A
C2187      C2188   1.401       .  A
C2187     Br2194   1.920       .  S
C2188      C2189   1.407       .  A
C2188      H2193   1.083       .  S
C2189      C2190   1.415       .  A
C2190     Br2191   1.920       .  S
C2195      C2196   1.400       .  A
C2195      C2200   1.395       .  A
C2195      H2202   1.084       .  S
C2196      C2197   1.407       .  A
C2197      C2198   1.401       .  A
C2197     Br2204   1.918       .  S
C2198      C2199   1.406       .  A
C2198      H2203   1.083       .  S
C2199      C2200   1.414       .  A
C2200     Br2201   1.920       .  S
C2205      C2206   1.402       .  A
C2205      C2210   1.395       .  A
C2205      H2212   1.084       .  S
C2206      C2207   1.410       .  A
C2207      C2208   1.402       .  A
C2207     Br2214   1.919       .  S
C2208      C2209   1.405       .  A
C2208      H2213   1.083       .  S
C2209      C2210   1.410       .  A
C2210     Br2211   1.920       .  S
C2215      C2216   1.403       .  A
C2215      C2220   1.400       .  A
C2215      H2222   1.083       .  S
C2216      C2217   1.411       .  A
C2217      C2218   1.400       .  A
C2217     Br2224   1.920       .  S
C2218      C2219   1.406       .  A
C2218      H2223   1.083       .  S
C2219      C2220   1.414       .  A
C2220     Br2221   1.920       .  S
C2225      C2226   1.405       .  A
C2225      C2230   1.401       .  A
C2225      H2232   1.083       .  S
C2226      C2227   1.412       .  A
C2227      C2228   1.395       .  A
C2227     Br2234   1.921       .  S
C2228      C2229   1.401       .  A
C2228      H2233   1.084       .  S
C2229      C2230   1.410       .  A
C2230     Br2231   1.918       .  S
C2235      C2236   1.404       .  A
C2235      C2240   1.397       .  A
C2235      H2242   1.083       .  S
C2236      C2237   1.412       .  A
C2237      C2238   1.399       .  A
C2237     Br2244   1.920       .  S
C2238      C2239   1.401       .  A
C2238      H2243   1.083       .  S
C2239      C2240   1.408       .  A
C2240     Br2241   1.920       .  S
C2245      C2246   1.402       .  A
C2245      C2250   1.397       .  A
C2245      H2252   1.084       .  S
C2246      C2247   1.410       .  A
C2247      C2248   1.401       .  A
C2247     Br2254   1.919       .  S
C2248      C2249   1.405       .  A
C2248      H2253   1.083       .  S
C2249      C2250   1.411       .  A
C2250     Br2251   1.920       .  S
C2255      C2256   1.401       .  A
C2255      C2260   1.401       .  A
C2255      H2262   1.083       .  S
C2256      C2257   1.405       .  A
C2257      C2258   1.392       .  A
C2257     Br2264   1.921       .  S
C2258      C2259   1.405       .  A
C2258      H2263   1.083       .  S
C2259      C2260   1.413       .  A
C2260     Br2261   1.918       .  S
C2265      C2266   1.402       .  A
C2265      C2270   1.399       .  A
C2265      H2272   1.084       .  S
C2266      C2267   1.408       .  A
C2267      C2268   1.399       .  A
C2267     Br2274   1.919       .  S
C2268      C2269   1.405       .  A
C2268      H2273   1.083       .  S
C2269      C2270   1.411       .  A
C2270     Br2271   1.919       .  S
C2275      C2276   1.408       .  A
C2275      C2280   1.400       .  A
C2275      H2282   1.083       .  S
C2276      C2277   1.419       .  A
C2277      C2278   1.399       .  A
C2277     Br2284   1.920       .  S
C2278      C2279   1.399       .  A
C2278      H2283   1.084       .  S
C2279      C2280   1.407       .  A
C2280     Br2281   1.918       .  S
C2285      C2286   1.401       .  A
C2285      C2290   1.399       .  A
C2285      H2292   1.084       .  S
C2286      C2287   1.408       .  A
C2287      C2288   1.401       .  A
C2287     Br2294   1.919       .  S
C2288      C2289   1.406       .  A
C2288      H2293   1.083       .  S
C2289      C2290   1.415       .  A
C2290     Br2291   1.920       .  S
C2295      C2296   1.401       .  A
C2295      C2300   1.397       .  A
C2295      H2302   1.084       .  S
C2296      C2297   1.405       .  A
C2297      C2298   1.401       .  A
C2297     Br2304   1.918       .  S
C2298      C2299   1.408       .  A
C2298      H2303   1.083       .  S
C2299      C2300   1.415       .  A
C2300     Br2301   1.920       .  S
C2305      C2306   1.401       .  A
C2305      C2310   1.396       .  A
C2305      H2312   1.084       .  S
C2306      C2307   1.409       .  A
C2307      C2308   1.401       .  A
C2307     Br2314   1.918       .  S
C2308      C2309   1.406       .  A
C2308      H2313   1.083       .  S
C2309      C2310   1.415       .  A
C2310     Br2311   1.921       .  S
C2315      C2316   1.404       .  A
C2315      C2320   1.400       .  A
C2315      H2322   1.083       .  S
C2316      C2317   1.411       .  A
C2317      C2318   1.398       .  A
C2317     Br2324   1.920       .  S
C2318      C2319   1.405       .  A
C2318      H2323   1.083       .  S
C2319      C2320   1.411       .  A
C2320     Br2321   1.919       .  S
C2325      C2326   1.405       .  A
C2325      C2330   1.400       .  A
C2325      H2332   1.083       .  S
C2326      C2327   1.413       .  A
C2327      C2328   1.396       .  A
C2327     Br2334   1.921       .  S
C2328      C2329   1.403       .  A
C2328      H2333   1.084       .  S
C2329      C2330   1.410       .  A
C2330     Br2331   1.919       .  S
C2335      C2336   1.407       .  A
C2335      C2340   1.397       .  A
C2335      H2342   1.083       .  S
C2336      C2337   1.418       .  A
C2337      C2338   1.399       .  A
C2337     Br2344   1.921       .  S
C2338      C2339   1.400       .  A
C2338      H2343   1.084       .  S
C2339      C2340   1.404       .  A
C2340     Br2341   1.919       .  S
C2345      C2346   1.402       .  A
C2345      C2350   1.397       .  A
C2345      H2352   1.084       .  S
C2346      C2347   1.409       .  A
C2347      C2348   1.403       .  A
C2347     Br2354   1.918       .  S
C2348      C2349   1.406       .  A
C2348      H2353   1.083       .  S
C2349      C2350   1.411       .  A
C2350     Br2351   1.921       .  S
C2355      C2356   1.408       .  A
C2355      C2360   1.400       .  A
C2355      H2362   1.083       .  S
C2356      C2357   1.414       .  A
C2357      C2358   1.398       .  A
C2357     Br2364   1.919       .  S
C2358      C2359   1.401       .  A
C2358      H2363   1.084       .  S
C2359      C2360   1.406       .  A
C2360     Br2361   1.918       .  S
C2365      C2366   1.405       .  A
C2365      C2370   1.399       .  A
C2365      H2372   1.083       .  S
C2366      C2367   1.415       .  A
C2367      C2368   1.401       .  A
C2367     Br2374   1.921       .  S
C2368      C2369   1.401       .  A
C2368      H2373   1.084       .  S
C2369      C2370   1.407       .  A
C2370     Br2371   1.919       .  S
C2375      C2376   1.406       .  A
C2375      C2380   1.402       .  A
C2375      H2382   1.083       .  S
C2376      C2377   1.416       .  A
C2377      C2378   1.401       .  A
C2377     Br2384   1.920       .  S
C2378      C2379   1.402       .  A
C2378      H2383   1.083       .  S
C2379      C2380   1.410       .  A
C2380     Br2381   1.920       .  S
C2385      C2386   1.405       .  A
C2385      C2390   1.398       .  A
C2385      H2392   1.084       .  S
C2386      C2387   1.411       .  A
C2387      C2388   1.400       .  A
C2387     Br2394   1.920       .  S
C2388      C2389   1.404       .  A
C2388      H2393   1.083       .  S
C2389      C2390   1.410       .  A
C2390     Br2391   1.920       .  S
C2395      C2396   1.405       .  A
C2395      C2400   1.401       .  A
C2395      H2402   1.084       .  S
C2396      C2397   1.410       .  A
C2397      C2398   1.396       .  A
C2397     Br2404   1.920       .  S
C2398      C2399   1.403       .  A
C2398      H2403   1.084       .  S
C2399      C2400   1.412       .  A
C2400     Br2401   1.919       .  S
C2405      C2406   1.403       .  A
C2405      C2410   1.399       .  A
C2405      H2412   1.084       .  S
C2406      C2407   1.409       .  A
C2407      C2408   1.399       .  A
C2407     Br2414   1.920       .  S
C2408      C2409   1.406       .  A
C2408      H2413   1.083       .  S
C2409      C2410   1.412       .  A
C2410     Br2411   1.920       .  S
C2415      C2416   1.407       .  A
C2415      C2420   1.402       .  A
C2415      H2422   1.083       .  S
C2416      C2417   1.413       .  A
C2417      C2418   1.397       .  A
C2417     Br2424   1.922       .  S
C2418      C2419   1.404       .  A
C2418      H2423   1.083       .  S
C2419      C2420   1.411       .  A
C2420     Br2421   1.919       .  S
C2425      C2426   1.403       .  A
C2425      C2430   1.400       .  A
C2425      H2432   1.084       .  S
C2426      C2427   1.408       .  A
C2427      C2428   1.397       .  A
C2427     Br2434   1.919       .  S
C2428      C2429   1.405       .  A
C2428      H2433   1.083       .  S
C2429      C2430   1.411       .  A
C2430     Br2431   1.919       .  S
C2435      C2436   1.404       .  A
C2435      C2440   1.403       .  A
C2435      H2442   1.083       .  S
C2436      C2437   1.413       .  A
C2437      C2438   1.398       .  A
C2437     Br2444   1.921       .  S
C2438      C2439   1.406       .  A
C2438      H2443   1.083       .  S
C2439      C2440   1.417       .  A
C2440     Br2441   1.921       .  S
C2445      C2446   1.406       .  A
C2445      C2450   1.397       .  A
C2445      H2452   1.083       .  S
C2446      C2447   1.415       .  A
C2447      C2448   1.402       .  A
C2447     Br2454   1.918       .  S
C2448      C2449   1.403       .  A
C2448      H2453   1.084       .  S
C2449      C2450   1.408       .  A
C2450     Br2451   1.921       .  S
C2455      C2456   1.406       .  A
C2455      C2460   1.402       .  A
C2455      H2462   1.083       .  S
C2456      C2457   1.411       .  A
C2457      C2458   1.397       .  A
C2457     Br2464   1.920       .  S
C2458      C2459   1.405       .  A
C2458      H2463   1.084       .  S
C2459      C2460   1.414       .  A
C2460     Br2461   1.921       .  S
C2465      C2466   1.402       .  A
C2465      C2470   1.403       .  A
C2465      H2472   1.084       .  S
C2466      C2467   1.407       .  A
C2467      C2468   1.393       .  A
C2467     Br2474   1.921       .  S
C2468      C2469   1.405       .  A
C2468      H2473   1.083       .  S
C2469      C2470   1.414       .  A
C2470     Br2471   1.919       .  S
C2475      C2476   1.408       .  A
C2475      C2480   1.394       .  A
C2475      H2482   1.081       .  S
C2476      C2477   1.419       .  A
C2477      C2478   1.404       .  A
C2477     Br2484   1.919       .  S
C2478      C2479   1.401       .  A
C2478      H2483   1.083       .  S
C2479      C2480   1.404       .  A
C2480     Br2481   1.920       .  S
C2485      C2486   1.403       .  A
C2485      C2490   1.398       .  A
C2485      H2492   1.084       .  S
C2486      C2487   1.409       .  A
C2487      C2488   1.399       .  A
C2487     Br2494   1.920       .  S
C2488      C2489   1.404       .  A
C2488      H2493   1.083       .  S
C2489      C2490   1.411       .  A
C2490     Br2491   1.919       .  S
C2495      C2496   1.404       .  A
C2495      C2500   1.398       .  A
C2495      H2502   1.083       .  S
C2496      C2497   1.412       .  A
C2497      C2498   1.395       .  A
C2497     Br2504   1.921       .  S
C2498      C2499   1.401       .  A
C2498      H2503   1.084       .  S
C2499      C2500   1.407       .  A
C2500     Br2501   1.918       .  S
C2505      C2506   1.405       .  A
C2505      C2510   1.398       .  A
C2505      H2512   1.083       .  S
C2506      C2507   1.411       .  A
C2507      C2508   1.398       .  A
C2507     Br2514   1.920       .  S
C2508      C2509   1.403       .  A
C2508      H2513   1.083       .  S
C2509      C2510   1.410       .  A
C2510     Br2511   1.920       .  S
C2515      C2516   1.401       .  A
C2515      C2520   1.401       .  A
C2515      H2522   1.083       .  S
C2516      C2517   1.408       .  A
C2517      C2518   1.400       .  A
C2517     Br2524   1.919       .  S
C2518      C2519   1.406       .  A
C2518      H2523   1.083       .  S
C2519      C2520   1.415       .  A
C2520     Br2521   1.920       .  S
C2525      C2526   1.398       .  A
C2525      C2530   1.395       .  A
C2525      H2532   1.084       .  S
C2526      C2527   1.407       .  A
C2527      C2528   1.399       .  A
C2527     Br2534   1.918       .  S
C2528      C2529   1.406       .  A
C2528      H2533   1.083       .  S
C2529      C2530   1.416       .  A
C2530     Br2531   1.922       .  S
C2535      C2536   1.404       .  A
C2535      C2540   1.400       .  A
C2535      H2542   1.083       .  S
C2536      C2537   1.415       .  A
C2537      C2538   1.398       .  A
C2537     Br2544   1.920       .  S
C2538      C2539   1.399       .  A
C2538      H2543   1.084       .  S
C2539      C2540   1.407       .  A
C2540     Br2541   1.917       .  S
C2545      C2546   1.403       .  A
C2545      C2550   1.400       .  A
C2545      H2552   1.083       .  S
C2546      C2547   1.411       .  A
C2547      C2548   1.400       .  A
C2547     Br2554   1.919       .  S
C2548      C2549   1.402       .  A
C2548      H2553   1.084       .  S
C2549      C2550   1.410       .  A
C2550     Br2551   1.920       .  S
C2555      C2556   1.407       .  A
C2555      C2560   1.401       .  A
C2555      H2562   1.083       .  S
C2556      C2557   1.412       .  A
C2557      C2558   1.397       .  A
C2557     Br2564   1.920       .  S
C2558      C2559   1.402       .  A
C2558      H2563   1.084       .  S
C2559      C2560   1.407       .  A
C2560     Br2561   1.919       .  S
C2565      C2566   1.408       .  A
C2565      C2570   1.403       .  A
C2565      H2572   1.083       .  S
C2566      C2567   1.414       .  A
C2567      C2568   1.398       .  A
C2567     Br2574   1.920       .  S
C2568      C2569   1.402       .  A
C2568      H2573   1.084       .  S
C2569      C2570   1.409       .  A
C2570     Br2571   1.919       .  S
C2575      C2576   1.399       .  A
C2575      C2580   1.397       .  A
C2575      H2582   1.084       .  S
C2576      C2577   1.407       .  A
C2577      C2578   1.399       .  A
C2577     Br2584   1.918       .  S
C2578      C2579   1.405       .  A
C2578      H2583   1.083       .  S
C2579      C2580   1.417       .  A
C2580     Br2581   1.921       .  S
C2585      C2586   1.404       .  A
C2585      C2590   1.400       .  A
C2585      H2592   1.083       .  S
C2586      C2587   1.410       .  A
C2587      C2588   1.398       .  A
C2587     Br2594   1.920       .  S
C2588      C2589   1.405       .  A
C2588      H2593   1.083       .  S
C2589      C2590   1.414       .  A
C2590     Br2591   1.920       .  S
C2595      C2596   1.405       .  A
C2595      C2600   1.404       .  A
C2595      H2602   1.083       .  S
C2596      C2597   1.409       .  A
C2597      C2598   1.397       .  A
C2597     Br2604   1.920       .  S
C2598      C2599   1.405       .  A
C2598      H2603   1.084       .  S
C2599      C2600   1.415       .  A
C2600     Br2601   1.920       .  S
C2605      C2606   1.407       .  A
C2605      C2610   1.403       .  A
C2605      H2612   1.083       .  S
C2606      C2607   1.412       .  A
C2607      C2608   1.397       .  A
C2607     Br2614   1.920       .  S
C2608      C2609   1.401       .  A
C2608      H2613   1.084       .  S
C2609      C2610   1.408       .  A
C2610     Br2611   1.919       .  S
C2615      C2616   1.409       .  A
C2615      C2620   1.398       .  A
C2615      H2622   1.082       .  S
C2616      C2617   1.418       .  A
C2617      C2618   1.402       .  A
C2617     Br2624   1.919       .  S
C2618      C2619   1.402       .  A
C2618      H2623   1.083       .  S
C2619      C2620   1.406       .  A
C2620     Br2621   1.919       .  S
C2625      C2626   1.406       .  A
C2625      C2630   1.400       .  A
C2625      H2632   1.083       .  S
C2626      C2627   1.414       .  A
C2627      C2628   1.402       .  A
C2627     Br2634   1.920       .  S
C2628      C2629   1.404       .  A
C2628      H2633   1.084       .  S
C2629      C2630   1.411       .  A
C2630     Br2631   1.920       .  S
C2635      C2636   1.404       .  A
C2635      C2640   1.403       .  A
C2635      H2642   1.083       .  S
C2636      C2637   1.410       .  A
C2637      C2638   1.396       .  A
C2637     Br2644   1.920       .  S
C2638      C2639   1.404       .  A
C2638      H2643   1.083       .  S
C2639      C2640   1.414       .  A
C2640     Br2641   1.919       .  S
C2645      C2646   1.407       .  A
C2645      C2650   1.401       .  A
C2645      H2652   1.083       .  S
C2646      C2647   1.416       .  A
C2647      C2648   1.400       .  A
C2647     Br2654   1.920       .  S
C2648      C2649   1.400       .  A
C2648      H2653   1.084       .  S
C2649      C2650   1.408       .  A
C2650     Br2651   1.918       .  S
C2655      C2656   1.405       .  A
C2655      C2660   1.401       .  A
C2655      H2662   1.083       .  S
C2656      C2657   1.410       .  A
C2657      C2658   1.398       .  A
C2657     Br2664   1.920       .  S
C2658      C2659   1.403       .  A
C2658      H2663   1.083       .  S
C2659      C2660   1.412       .  A
C2660     Br2661   1.920       .  S
C2665      C2666   1.405       .  A
C2665      C2670   1.402       .  A
C2665      H2672   1.083       .  S
C2666      C2667   1.410       .  A
C2667      C2668   1.395       .  A
C2667     Br2674   1.920       .  S
C2668      C2669   1.404       .  A
C2668      H2673   1.084       .  S
C2669      C2670   1.412       .  A
C2670     Br2671   1.920       .  S
C2675      C2676   1.402       .  A
C2675      C2680   1.398       .  A
C2675      H2682   1.084       .  S
C2676      C2677   1.409       .  A
C2677      C2678   1.401       .  A
C2677     Br2684   1.918       .  S
C2678      C2679   1.405       .  A
C2678      H2683   1.083       .  S
C2679      C2680   1.412       .  A
C2680     Br2681   1.920       .  S
C2685      C2686   1.405       .  A
C2685      C2690   1.400       .  A
C2685      H2692   1.083       .  S
C2686      C2687   1.414       .  A
C2687      C2688   1.400       .  A
C2687     Br2694   1.920       .  S
C2688      C2689   1.400       .  A
C2688      H2693   1.083       .  S
C2689      C2690   1.409       .  A
C2690     Br2691   1.919       .  S
C2695      C2696   1.406       .  A
C2695      C2700   1.398       .  A
C2695      H2702   1.083       .  S
C2696      C2697   1.415       .  A
C2697      C2698   1.402       .  A
C2697     Br2704   1.919       .  S
C2698      C2699   1.403       .  A
C2698      H2703   1.083       .  S
C2699      C2700   1.408       .  A
C2700     Br2701   1.921       .  S
C2705      C2706   1.401       .  A
C2705      C2710   1.397       .  A
C2705      H2712   1.084       .  S
C2706      C2707   1.408       .  A
C2707      C2708   1.403       .  A
C2707     Br2714   1.918       .  S
C2708      C2709   1.406       .  A
C2708      H2713   1.083       .  S
C2709      C2710   1.413       .  A
C2710     Br2711   1.921       .  S
C2715      C2716   1.407       .  A
C2715      C2720   1.398       .  A
C2715      H2722   1.083       .  S
C2716      C2717   1.415       .  A
C2717      C2718   1.397       .  A
C2717     Br2724   1.920       .  S
C2718      C2719   1.401       .  A
C2718      H2723   1.084       .  S
C2719      C2720   1.405       .  A
C2720     Br2721   1.918       .  S
