geometry optimzed in LAMMPS
_audit_creation_date              2020-11-30 
_audit_creation_method            'lammps2cif' 
_symmetry_space_group_name_H-M    'P1' 
_symmetry_Int_Tables_number       1 
_symmetry_cell_setting            triclinic 
loop_ 
_symmetry_equiv_pos_as_xyz 
  x,y,z 
_cell_length_a                    40.24105962 
_cell_length_b                    40.37741527115455 
_cell_length_c                    40.1949928784868 
_cell_angle_alpha                 89.83069786487523 
_cell_angle_beta                  89.84970897298857 
_cell_angle_gamma                 90.27625100003927 
loop_ 
_atom_site_label 
_atom_site_type_symbol 
_atom_site_fract_x 
_atom_site_fract_y 
_atom_site_fract_z 
_atom_site_charge 
O1          O  0.72770044  0.75944523  0.81322692    -0.88800
C2          C  0.73564408  0.67307238  0.76270136     0.87200
Mg3        Mg  0.70412834  0.80215344  0.79262655     1.58100
O4          O  0.80798477  0.72047960  0.76614396    -0.88600
O5          O  0.77676205  0.74659006  0.83298224    -0.75900
C6          C  0.75870194  0.81448106  0.63608873     0.92200
O7          O  0.67720396  0.72758485  0.76132332    -0.75700
O8          O  0.73422988  0.82142668  0.65486450    -0.83200
Mg9        Mg  0.70102794  0.71357312  0.81123651     1.58000
C10         C  0.86740767  0.73745094  0.68603548     0.92200
O11         O  0.72078011  0.69670870  0.86319642    -0.81500
H12         H  0.84247577  0.74521742  0.79204952    -0.06800
C13         C  0.75318614  0.72890119  0.68205273     0.87100
O14         O  0.75479079  0.82275860  0.77581700    -0.76000
O15         O  0.74223667  0.69216183  0.78590512    -0.88800
O16         O  0.85699942  0.71422596  0.70510813    -0.81600
C17         C  0.81838351  0.63087061  0.76587854     0.92300
C18         C  0.74528985  0.68059172  0.87523172     0.92100
Mg19       Mg  0.80373522  0.78100687  0.69887283     1.58000
O20         O  0.78289146  0.79671867  0.64628737    -0.81500
O21         O  0.82838750  0.76830707  0.74937002    -0.75700
O22         O  0.80326003  0.64366675  0.79064024    -0.81600
O23         O  0.65548228  0.73577490  0.83516483    -0.83300
O24         O  0.70188543  0.85167825  0.72123325    -0.81600
C25         C  0.82696324  0.74438855  0.77008661     0.86600
O26         O  0.76381812  0.80326305  0.72550440    -0.88700
O27         O  0.77776482  0.73529509  0.69939239    -0.88900
O28         O  0.72812566  0.74796834  0.68098524    -0.75900
Mg29       Mg  0.78953842  0.69620898  0.80985005     1.58000
O30         O  0.82778776  0.64813148  0.74105192    -0.83300
H31         H  0.75108926  0.78739531  0.84684859    -0.07000
O32         O  0.69778236  0.77604068  0.74687768    -0.88600
H33         H  0.66254998  0.75311241  0.72038772    -0.06800
H34         H  0.79475396  0.83542081  0.74744046    -0.07000
C35         C  0.67831952  0.75268352  0.74217012     0.86500
C36         C  0.75142247  0.76525714  0.83191115     0.87100
C37         C  0.77178678  0.82131608  0.74910613     0.87200
H38         H  0.75265543  0.70611119  0.66810843    -0.07000
O39         O  0.75370442  0.67126110  0.73667627    -0.76000
Mg40       Mg  0.71600119  0.79917546  0.70297439     1.58000
H41         H  0.71322287  0.65809434  0.76418777    -0.07000
C42         C  0.63906762  0.76122134  0.82636628     0.92200
O43         O  0.68216884  0.85002645  0.77297371    -0.83200
C44         C  0.68812056  0.86570630  0.74608158     0.92200
O45         O  0.77085619  0.67371898  0.85792383    -0.83200
Mg46       Mg  0.80397869  0.69413917  0.72051082     1.58200
O47         O  0.65188902  0.78488796  0.80956967    -0.81600
O48         O  0.84734057  0.75786017  0.67290897    -0.83300
C49         C  0.62819932  0.99842464  0.74688869    -0.03000
O50         O  0.77017595  0.19377856  0.77949042    -0.88800
C51         C  0.68468613  0.24383288  0.76785638     0.87200
Mg52       Mg  0.81120852  0.21620398  0.80510825     1.58100
O53         O  0.72978389  0.23761154  0.69390020    -0.88600
O54         O  0.75833416  0.17487725  0.72951549    -0.75900
C55         C  0.82583662  0.36620957  0.73438749     0.92200
O56         O  0.73666537  0.24763586  0.82519778    -0.75700
O57         O  0.83488974  0.35010544  0.76019078    -0.83200
Mg58       Mg  0.72336289  0.19579426  0.80383480     1.58000
C59         C  0.74574145  0.31456786  0.63122011     0.92200
O60         O  0.70900505  0.14139796  0.78483963    -0.81500
H61         H  0.75216964  0.20840741  0.66079529    -0.06800
C62         C  0.74232944  0.32381073  0.74358403     0.87100
O63         O  0.83518936  0.22841193  0.75417069    -0.76000
O64         O  0.70277706  0.21990587  0.76151951    -0.88800
O65         O  0.72059215  0.29973258  0.64388216    -0.81600
C66         C  0.64028222  0.23713359  0.68497470     0.92300
C67         C  0.69276731  0.13012045  0.75984450     0.92100
Mg68       Mg  0.79393138  0.29903527  0.69490725     1.58000
O69         O  0.80971705  0.35233249  0.71088585    -0.81500
O70         O  0.77959870  0.24837428  0.67413936    -0.75700
O71         O  0.65354358  0.21272585  0.70018313    -0.81600
O72         O  0.74338892  0.17435222  0.85144597    -0.83300
O73         O  0.86469826  0.28514648  0.79969591    -0.81600
C74         C  0.75332222  0.23084939  0.67526985     0.86600
O75         O  0.81493791  0.27637104  0.73819002    -0.88700
O76         O  0.74767277  0.30402034  0.72071698    -0.88900
O77         O  0.76139352  0.32612496  0.76867150    -0.75900
Mg78       Mg  0.70683158  0.19535610  0.71510102     1.58000
O79         O  0.65656069  0.26311095  0.67720664    -0.83300
H80         H  0.79995644  0.16249675  0.75511940    -0.07000
O81         O  0.78586607  0.26215343  0.80562855    -0.88600
H82         H  0.76032252  0.29044608  0.83730110    -0.06800
H83         H  0.84912572  0.25203938  0.71155000    -0.07000
C84         C  0.76123763  0.26770159  0.82337350     0.86500
C85         C  0.77693481  0.17629547  0.75509568     0.87100
C86         C  0.83381291  0.25260968  0.73381260     0.87200
H87         H  0.72018023  0.33887593  0.74270086    -0.07000
O88         O  0.68352360  0.26935967  0.74926456    -0.76000
Mg89       Mg  0.81169256  0.30371571  0.78332939     1.58000
H90         H  0.67030771  0.24355008  0.79070934    -0.07000
C91         C  0.76670007  0.18484702  0.87006441     0.92200
O92         O  0.85692288  0.23850615  0.82867354    -0.83200
C93         C  0.87547224  0.26229849  0.81889718     0.92200
O94         O  0.68551935  0.14833054  0.73511326    -0.83200
Mg95       Mg  0.70432176  0.28366767  0.69779457     1.58200
O96         O  0.79035511  0.20299356  0.85876690    -0.81600
O97         O  0.77219585  0.31941072  0.64794617    -0.83300
C98         C  0.87509660  0.50147349  0.74846520    -0.03000
C99         C  0.74830346  0.87815362  0.50349732    -0.03000
O100        O  0.77605266  0.74884189  0.19954258    -0.88800
C101        C  0.76643665  0.66627807  0.25759039     0.87200
Mg102      Mg  0.80174898  0.79213916  0.21676163     1.58100
O103        O  0.69174662  0.70911226  0.24850600    -0.88600
O104        O  0.72640378  0.73342711  0.18245436    -0.75900
C105        C  0.73636068  0.81620755  0.36857348     0.92200
O106        O  0.82472264  0.72034851  0.25482323    -0.75700
O107        O  0.76068498  0.82279819  0.34924281    -0.83200
Mg108      Mg  0.80112321  0.70320775  0.20546708     1.58000
C109        C  0.63064006  0.73023757  0.32524444     0.92200
O110        O  0.78092253  0.68529434  0.15427968    -0.81500
H111        H  0.65809475  0.72973204  0.21843989    -0.06800
C112        C  0.74435080  0.72810766  0.33180997     0.87100
O113        O  0.75071075  0.81518652  0.22952448    -0.76000
O114        O  0.75963584  0.68310778  0.23271680    -0.88800
O115        O  0.64249134  0.70426820  0.31154745    -0.81600
C116        C  0.68229082  0.61925360  0.25422741     0.92300
C117        C  0.75715627  0.66698193  0.14402896     0.92100
Mg118      Mg  0.69447831  0.77727753  0.30598429     1.58000
O119        O  0.71229140  0.79785822  0.35866831    -0.81500
O120        O  0.67227194  0.75918691  0.25673790    -0.75700
O121        O  0.69702140  0.63206155  0.22905686    -0.81600
O122        O  0.84671720  0.72294981  0.17926401    -0.83300
O123        O  0.79789698  0.84876296  0.28231437    -0.81600
C124        C  0.67310718  0.73214588  0.24063872     0.86600
O125        O  0.73654844  0.79729180  0.27935444    -0.88700
O126        O  0.72005030  0.73163250  0.31328455    -0.88900
O127        O  0.76911791  0.74786068  0.33117451    -0.75900
Mg128      Mg  0.71285514  0.68357809  0.20777597     1.58000
O129        O  0.67556162  0.63621865  0.28008728    -0.83300
H130        H  0.75037337  0.77465880  0.16585240    -0.07000
O131        O  0.80452177  0.76983175  0.26469962    -0.88600
H132        H  0.83824706  0.74862413  0.29434536    -0.06800
H133        H  0.70844369  0.82894406  0.25346508    -0.07000
C134        C  0.82326220  0.74670688  0.27207784     0.86500
C135        C  0.75127257  0.75309894  0.18180342     0.87100
C136        C  0.73100925  0.81450426  0.25440706     0.87200
H137        H  0.74497083  0.70699589  0.34843366    -0.07000
O138        O  0.74786105  0.66561020  0.28327089    -0.76000
Mg139      Mg  0.78258269  0.79695340  0.30483007     1.58000
H140        H  0.78944990  0.65250861  0.25789666    -0.07000
C141        C  0.86614065  0.74690510  0.18590080     0.92200
O142        O  0.82534098  0.83976640  0.23486393    -0.83200
C143        C  0.81640298  0.85886785  0.25839600     0.92200
O144        O  0.73317277  0.65828403  0.16272443    -0.83200
Mg145      Mg  0.69640426  0.68658944  0.29661607     1.58200
O146        O  0.85547252  0.77217749  0.20186562    -0.81600
O147        O  0.64832653  0.75626076  0.32919443    -0.83300
C148        C  0.74943713  0.61618155  0.00762646    -0.03000
C149        C  0.49433065  0.74537300  0.38188717    -0.03000
C150        C  0.13713469  0.00438261  0.75345604    -0.03000
C151        C  0.75924203  0.11982518  0.00196199    -0.03000
C152        C  0.37806422  0.50440763  0.74229998    -0.03000
C153        C  0.74671534  0.37977692  0.49744896    -0.03000
C154        C  0.61896589  0.48641972  0.25021126    -0.03000
C155        C  0.24216618  0.62987357  0.49603226    -0.03000
C156        C  0.99861632  0.74352948  0.11995848    -0.03000
O157        O  0.28804007  0.78991787  0.27793974    -0.88800
C158        C  0.29136676  0.76554175  0.18016681     0.87200
Mg159      Mg  0.28848495  0.75503006  0.31722992     1.58100
O160        O  0.21258950  0.78800028  0.20884980    -0.88600
O161        O  0.25419867  0.82896803  0.26119581    -0.75900
C162        C  0.18703463  0.63514823  0.26721451     0.92200
O163        O  0.32625122  0.72975752  0.24351207    -0.75700
O164        O  0.21206620  0.63924831  0.28593648    -0.83200
Mg165      Mg  0.32561934  0.78642175  0.24010748     1.58000
C166        C  0.12827986  0.73652575  0.18728810     0.92200
O167        O  0.32827211  0.84342479  0.23749984    -0.81500
H168        H  0.18264632  0.82090808  0.23051339    -0.06800
C169        C  0.23144456  0.69017035  0.20447034     0.87100
O170        O  0.23164778  0.75584953  0.32039169    -0.76000
O171        O  0.28681672  0.78471017  0.20374832    -0.88800
O172        O  0.15266999  0.75107129  0.17287597    -0.81600
C173        C  0.23016894  0.81073096  0.12330941     0.92300
C174        C  0.31575400  0.86820498  0.22235294     0.92100
Mg175      Mg  0.17582358  0.71652670  0.24808725     1.58000
O176        O  0.17383733  0.65925161  0.25139857    -0.81500
O177        O  0.17424317  0.77347339  0.24511207    -0.75700
O178        O  0.24688543  0.82382968  0.14697476    -0.81600
O179        O  0.36903113  0.78520989  0.27705582    -0.83300
O180        O  0.25135533  0.68092892  0.34153681    -0.81600
C181        C  0.18945163  0.79524702  0.22782398     0.86600
O182        O  0.21397081  0.71922026  0.28416889    -0.88700
O183        O  0.21313102  0.71410226  0.21014488    -0.88900
O184        O  0.24799581  0.67595228  0.22731207    -0.75900
Mg185      Mg  0.25108226  0.82416298  0.20449380     1.58000
O186        O  0.21062401  0.78635025  0.12821801    -0.83300
H187        H  0.26889251  0.82332429  0.30910351    -0.07000
O188        O  0.28803838  0.71653524  0.28051005    -0.88600
H189        H  0.31768999  0.68292208  0.25964846    -0.06800
H190        H  0.18304039  0.74346407  0.31456146    -0.07000
C191        C  0.31114691  0.70867612  0.26171128     0.86500
C192        C  0.27084900  0.81456879  0.28376242     0.87100
C193        C  0.20854118  0.73913612  0.30687897     0.87200
H194        H  0.23433485  0.68181850  0.17910720    -0.07000
O195        O  0.26759344  0.74978585  0.16649365    -0.76000
Mg196      Mg  0.25004945  0.68034493  0.28431336     1.58000
H197        H  0.31654081  0.76125979  0.17157666    -0.07000
C198        C  0.37148321  0.76816359  0.30365784     0.92200
O199        O  0.28537305  0.71968563  0.36179157    -0.83200
C200        C  0.26583672  0.69505121  0.36588797     0.92200
O201        O  0.29067140  0.86501375  0.20323176    -0.83200
Mg202      Mg  0.21052874  0.75015861  0.17152446     1.58200
O203        O  0.34589690  0.75523529  0.31769203    -0.81600
O204        O  0.13292653  0.71672968  0.21155177    -0.83300
C205        C  0.25335723  0.87956036  0.99518095    -0.03000
C206        C  0.50555565  0.24241645  0.62886502    -0.03000
O207        O  0.29181236  0.29013376  0.78689217    -0.88800
C208        C  0.19276587  0.29069183  0.76465622     0.87200
Mg209      Mg  0.33025539  0.29481102  0.75104600     1.58100
O210        O  0.22444633  0.21217728  0.78354867    -0.88600
O211        O  0.27628154  0.25408446  0.82494785    -0.75900
C212        C  0.27886723  0.19773594  0.62714814     0.92200
O213        O  0.25514861  0.33070325  0.72853318    -0.75700
O214        O  0.29736042  0.22313824  0.63086350    -0.83200
Mg215      Mg  0.25244971  0.32583385  0.78514156     1.58000
C216        C  0.20383310  0.13170204  0.72776330     0.92200
O217        O  0.24945058  0.32567874  0.84137674    -0.81500
H218        H  0.24822644  0.18151818  0.81456896    -0.06800
C219        C  0.21694782  0.23749569  0.68684007     0.87100
O220        O  0.33553579  0.23829731  0.74855209    -0.76000
O221        O  0.21765113  0.28559738  0.78190699    -0.88800
O222        O  0.18961323  0.15411931  0.74483902    -0.81600
C223        C  0.13845940  0.22532076  0.80963004     0.92300
C224        C  0.23366402  0.31255157  0.86549005     0.92100
Mg225      Mg  0.26276650  0.18227857  0.70908936     1.58000
O226        O  0.26423570  0.18417450  0.65190685    -0.81500
O227        O  0.26182574  0.17676875  0.76610216    -0.75700
O228        O  0.16228280  0.24256095  0.82168357    -0.81600
O229        O  0.28754387  0.37069646  0.78665051    -0.83300
O230        O  0.35321346  0.26218978  0.67622327    -0.81600
C231        C  0.24453662  0.18970754  0.78914686     0.86600
O232        O  0.29786195  0.22144149  0.71281046    -0.88700
O233        O  0.22363205  0.21800718  0.70976276    -0.88900
O234        O  0.23904624  0.25521721  0.67246718    -0.75900
Mg235      Mg  0.21949011  0.24884458  0.82074061     1.58000
O236        O  0.14322300  0.20650781  0.78472223    -0.83300
H237        H  0.32381674  0.27029775  0.81926121    -0.07000
O238        O  0.29270950  0.29470873  0.71317949    -0.88600
H239        H  0.27148196  0.32595310  0.68098058    -0.06800
H240        H  0.33014477  0.19054213  0.73410316    -0.07000
C241        C  0.27360389  0.31769053  0.70656455     0.86500
C242        C  0.29831751  0.27193469  0.81082439     0.87100
C243        C  0.32165086  0.21569670  0.73145297     0.87200
H244        H  0.19122621  0.24025627  0.67940595    -0.07000
O245        O  0.17830495  0.26744757  0.74898498    -0.76000
Mg246      Mg  0.29618419  0.25909822  0.67500820     1.58000
H247        H  0.18355931  0.31564185  0.76223438    -0.07000
C248        C  0.31272466  0.37558464  0.76799721     0.92200
O249        O  0.37365550  0.29684802  0.71410955    -0.83200
C250        C  0.37780214  0.27637540  0.69038274     0.92200
O251        O  0.21595610  0.28666492  0.86183161    -0.83200
Mg252      Mg  0.18584520  0.21105645  0.74678883     1.58200
O253        O  0.32795913  0.35160245  0.75412053    -0.81600
O254        O  0.22728370  0.13821027  0.70741223    -0.83300
C255        C  0.00934368  0.24940666  0.87838229    -0.03000
O256        O  0.78028602  0.20127249  0.21782762    -0.88800
C257        C  0.68197907  0.19426466  0.23881687     0.87200
Mg258      Mg  0.81823926  0.19844792  0.25488336     1.58100
O259        O  0.70850082  0.27353231  0.21671877    -0.88600
O260        O  0.76297599  0.23460069  0.17813708    -0.75900
C261        C  0.76514372  0.30205396  0.37264289     0.92200
O262        O  0.74404964  0.16046146  0.27498722    -0.75700
O263        O  0.78262555  0.27595839  0.36980932    -0.83200
Mg264      Mg  0.74384525  0.16301988  0.21755348     1.58000
C265        C  0.68574193  0.35717739  0.26694485     0.92200
O266        O  0.74580176  0.16318067  0.15931972    -0.81500
H267        H  0.73196434  0.30310402  0.18418063    -0.06800
C268        C  0.70253241  0.25553468  0.31636348     0.87100
O269        O  0.82208473  0.25526609  0.25478350    -0.76000
O270        O  0.70551070  0.19965276  0.21953985    -0.88800
O271        O  0.67156393  0.33208143  0.25358866    -0.81600
C272        C  0.62332328  0.25358270  0.19124405     0.92300
C273        C  0.72926652  0.17530809  0.13511004     0.92100
Mg274      Mg  0.74704103  0.31078770  0.28939486     1.58000
O275        O  0.75010595  0.31467144  0.34752947    -0.81500
O276        O  0.74520113  0.31096679  0.23221214    -0.75700
O277        O  0.64669383  0.23606717  0.17876315    -0.81600
O278        O  0.78200960  0.12190096  0.21835483    -0.83300
O279        O  0.83952933  0.23538346  0.32738960    -0.81600
C280        C  0.72819230  0.29628803  0.20999669     0.86600
O281        O  0.78308997  0.27258508  0.28876782    -0.88700
O282        O  0.70870476  0.27328853  0.29186373    -0.88900
O283        O  0.72500656  0.23935929  0.33154882    -0.75900
Mg284      Mg  0.70552562  0.23533317  0.18039332     1.58000
O285        O  0.62865240  0.27342530  0.21537767    -0.83300
H286        H  0.81162780  0.22370664  0.18606620    -0.07000
O287        O  0.77941283  0.19870577  0.29180352    -0.88600
H288        H  0.75606161  0.16803264  0.32349718    -0.06800
H289        H  0.81524927  0.30350942  0.26670690    -0.07000
C290        C  0.76012261  0.17537319  0.29781983     0.86500
C291        C  0.78603323  0.21965671  0.19372543     0.87100
C292        C  0.80724543  0.27822549  0.27041193     0.87200
H293        H  0.67691981  0.25281791  0.32448123    -0.07000
O294        O  0.66743937  0.21746978  0.25448172    -0.76000
Mg295      Mg  0.78211043  0.23689417  0.32834608     1.58000
H296        H  0.67414827  0.16896099  0.24319146    -0.07000
C297        C  0.80578570  0.11720739  0.23859319     0.92200
O298        O  0.86135665  0.19938581  0.29195553    -0.83200
C299        C  0.86480541  0.22088694  0.31478922     0.92200
O300        O  0.70655283  0.19670277  0.13957908    -0.83200
Mg301      Mg  0.67091533  0.27452611  0.25403247     1.58200
O302        O  0.81861205  0.14077352  0.25541755    -0.81600
O303        O  0.71077293  0.35409866  0.28608283    -0.83300
C304        C  0.87933663  0.99219697  0.25579446    -0.03000
C305        C  0.99321940  0.26275809  0.37414066    -0.03000
O306        O  0.25284756  0.30747269  0.21999885    -0.88800
C307        C  0.16562981  0.25804323  0.23189640     0.87200
Mg308      Mg  0.29409092  0.28678394  0.19392825     1.58100
O309        O  0.21571346  0.26079494  0.30228970    -0.88600
O310        O  0.24265969  0.32658725  0.26994777    -0.75900
C311        C  0.30741326  0.13194696  0.24806872     0.92200
O312        O  0.21803725  0.25551310  0.17186823    -0.75700
O313        O  0.31460511  0.14992771  0.22308433    -0.83200
Mg314      Mg  0.20523110  0.30548370  0.19597289     1.58000
C315        C  0.23179397  0.18062331  0.35989729     0.92200
O316        O  0.18978003  0.35774662  0.21567529    -0.81500
H317        H  0.24107919  0.28615361  0.33654268    -0.06800
C318        C  0.22209268  0.17714779  0.24644469     0.87100
O319        O  0.31785818  0.27037259  0.24332491    -0.76000
O320        O  0.18577845  0.28048368  0.23802911    -0.88800
O321        O  0.20842209  0.19951593  0.35034098    -0.81600
C322        C  0.12734290  0.26339284  0.31764639     0.92300
C323        C  0.17426374  0.36917548  0.24090133     0.92100
Mg324      Mg  0.27581247  0.19506869  0.29477465     1.58000
O325        O  0.29096737  0.14327284  0.27286624    -0.81500
O326        O  0.26438670  0.24469769  0.32052885    -0.75700
O327        O  0.14031463  0.28718178  0.30130514    -0.81600
O328        O  0.22396795  0.32896143  0.14929723    -0.83300
O329        O  0.34502552  0.21634062  0.19156909    -0.81600
C330        C  0.24007342  0.26472261  0.32062419     0.86600
O331        O  0.29727996  0.22094147  0.25400894    -0.88700
O332        O  0.22890477  0.19487008  0.27060837    -0.88900
O333        O  0.24082149  0.17572691  0.22090336    -0.75900
Mg334      Mg  0.19217742  0.30445166  0.28475708     1.58000
O335        O  0.14314045  0.23704802  0.32454760    -0.83300
H336        H  0.28299150  0.34000870  0.24245849    -0.07000
O337        O  0.26765422  0.24131902  0.18952418    -0.88600
H338        H  0.24249599  0.21466935  0.15614531    -0.06800
H339        H  0.33183580  0.24216703  0.28277006    -0.07000
C340        C  0.24310833  0.23642532  0.17161985     0.86500
C341        C  0.26021858  0.32554137  0.24368022     0.87100
C342        C  0.31649196  0.24402544  0.26075409     0.87200
H343        H  0.19913054  0.16294446  0.24675055    -0.07000
O344        O  0.16380331  0.23186510  0.24948699    -0.76000
Mg345      Mg  0.29197364  0.19793815  0.20662521     1.58000
H346        H  0.14989803  0.26026142  0.21016769    -0.07000
C347        C  0.24882169  0.32075150  0.13170986     0.92200
O348        O  0.34032417  0.26630424  0.16841956    -0.83200
C349        C  0.35745419  0.24076496  0.17555337     0.92200
O350        O  0.16932834  0.35176050  0.26683044    -0.83200
Mg351      Mg  0.18811423  0.21574757  0.29851012     1.58200
O352        O  0.27304938  0.30410995  0.14344674    -0.81600
O353        O  0.25351204  0.17020606  0.33933098    -0.83300
C354        C  0.24911868  0.37612772  0.99614229    -0.03000
C355        C  0.37402703  0.00148733  0.24408111    -0.03000
O356        O  0.93782704  0.02602560  0.48459339    -0.88800
C357        C  0.99056863  0.94209099  0.49317508     0.87200
Mg358      Mg  0.95743575  0.06684003  0.45636684     1.58100
O359        O  0.98771979  0.98828874  0.56667479    -0.88600
O360        O  0.92136091  0.01381043  0.53543772    -0.75900
C361        C  0.11314813  0.08289347  0.51273671     0.92200
O362        O  0.98776695  0.99289677  0.43351081    -0.75700
O363        O  0.09540749  0.08918308  0.48730063    -0.83200
Mg364      Mg  0.93838420  0.97978013  0.46023145     1.58000
C365        C  0.06847955  0.00596561  0.62507966     0.92200
O366        O  0.88704580  0.96412137  0.48336034    -0.81500
H367        H  0.96046899  0.01103737  0.60145562    -0.06800
C368        C  0.07086423  0.99941146  0.51142097     0.87100
O369        O  0.97397052  0.09125284  0.50571494    -0.76000
O370        O  0.96648184  0.95961782  0.50061807    -0.88800
O371        O  0.05317495  0.98146602  0.61202356    -0.81600
C372        C  0.98974290  0.89899332  0.57824499     0.92300
C373        C  0.87758833  0.94654421  0.50815266     0.92100
Mg374      Mg  0.04979969  0.05244737  0.56072630     1.58000
O375        O  0.10131680  0.06874961  0.53878870    -0.81500
O376        O  0.00036996  0.03779631  0.58555370    -0.75700
O377        O  0.96441209  0.91045375  0.56304506    -0.81600
O378        O  0.91083324  0.00077411  0.41602785    -0.83300
O379        O  0.02729364  0.11827494  0.45260180    -0.81600
C380        C  0.98222602  0.01191580  0.58546052     0.86600
O381        O  0.02357968  0.07176363  0.51807094    -0.88700
O382        O  0.05310510  0.00578180  0.53574584    -0.88900
O383        O  0.07039492  0.01685649  0.48504935    -0.75900
Mg384      Mg  0.94454279  0.96319783  0.54880019     1.58000
O385        O  0.01498882  0.91688717  0.58467226    -0.83300
H386        H  0.90682861  0.05493403  0.51028305    -0.07000
O387        O  0.00344623  0.04133459  0.45274867    -0.88600
H388        H  0.02934879  0.01726344  0.41777378    -0.06800
H389        H  0.00089500  0.10605008  0.54571732    -0.07000
C390        C  0.00770948  0.01747190  0.43396369     0.86500
C391        C  0.92122975  0.03243369  0.50977425     0.87100
C392        C  0.99989210  0.09047041  0.52392872     0.87200
H393        H  0.08617050  0.97753815  0.51209698    -0.07000
O394        O  0.01696088  0.94145856  0.51057676    -0.76000
Mg395      Mg  0.04690484  0.06640361  0.47014446     1.58000
H396        H  0.98952044  0.92760785  0.47065140    -0.07000
C397        C  0.92311637  0.02057941  0.39459654     0.92200
O398        O  0.97661573  0.11281113  0.43073750    -0.83200
C399        C  0.00231402  0.13013698  0.43696977     0.92200
O400        O  0.89691033  0.93952545  0.53206943    -0.83200
Mg401      Mg  0.03397756  0.96346081  0.56063124     1.58200
O402        O  0.94176704  0.04465778  0.40374903    -0.81600
O403        O  0.07416598  0.03263059  0.60874864    -0.83300
O404        O  0.04450149  0.04014424  0.96893611    -0.88800
C405        C  0.94593714  0.02241170  0.96624455     0.87200
Mg406      Mg  0.07843550  0.00097006  0.96335540     1.58100
O407        O  0.97695789  0.03391593  0.04684359    -0.88600
O408        O  0.03243426  0.07540896  0.00858360    -0.75900
C409        C  0.01559681  0.87425674  0.05597651     0.92200
O410        O  0.00538015  0.98717528  0.92373730    -0.75700
O411        O  0.03445593  0.87923676  0.03074992    -0.83200
Mg412      Mg  0.00664142  0.04342440  0.93205987     1.58000
C413        C  0.94809540  0.97698288  0.12636307     0.92200
O414        O  0.00619390  0.09961956  0.93544565    -0.81500
H415        H  0.00143856  0.06160674  0.07989124    -0.06800
C416        C  0.96042096  0.94003351  0.01872729     0.87100
O417        O  0.08128053  0.99491470  0.02032598    -0.76000
O418        O  0.97107140  0.03930978  0.97200555    -0.88800
O419        O  0.93614531  0.99503836  0.10322106    -0.81600
C420        C  0.89345519  0.06530373  0.03142782     0.92300
C421        C  0.99329404  0.12357292  0.95136908     0.92100
Mg422      Mg  0.00722322  0.95604212  0.07637557     1.58000
O423        O  0.00362079  0.89852585  0.07239358    -0.81500
O424        O  0.01064289  0.01242823  0.08383389    -0.75700
O425        O  0.91873629  0.07744926  0.01653191    -0.81600
O426        O  0.04436127  0.04632905  0.88844909    -0.83300
O427        O  0.09544458  0.92223575  0.99378462    -0.81600
C428        C  0.99615358  0.03711647  0.07065807     0.86600
O429        O  0.04255930  0.95957069  0.03680886    -0.88700
O430        O  0.96900709  0.96093324  0.03958660    -0.88900
O431        O  0.98112594  0.92612504  0.99935981    -0.75900
Mg432      Mg  0.97565517  0.07439253  0.01255877     1.58000
O433        O  0.89621343  0.04047408  0.05068680    -0.83300
H434        H  0.07917674  0.06825999  0.99088081    -0.07000
O435        O  0.03794824  0.96631784  0.96186148    -0.88600
H436        H  0.01585819  0.93822831  0.92747396    -0.06800
H437        H  0.07553079  0.97953672  0.06809215    -0.07000
C438        C  0.01995223  0.96276799  0.93723085     0.86500
C439        C  0.05303413  0.06180525  0.98895580     0.87100
C440        C  0.06689114  0.97758712  0.04271670     0.87200
H441        H  0.93416800  0.93446103  0.01591473    -0.07000
O442        O  0.93084811  0.00610293  0.98893773    -0.76000
Mg443      Mg  0.03808332  0.92537661  0.99636665     1.58000
H444        H  0.93700137  0.02080197  0.94097157    -0.07000
C445        C  0.06807331  0.02631124  0.88236742     0.92200
O446        O  0.11686323  0.96132874  0.96048604    -0.83200
C447        C  0.12004296  0.93577439  0.97870194     0.92200
O448        O  0.97689284  0.11937994  0.97819236    -0.83200
Mg449      Mg  0.93535433  0.00048595  0.04597479     1.58200
O450        O  0.07978663  0.00733145  0.90506574    -0.81600
O451        O  0.97129578  0.95626871  0.12085806    -0.83300
O452        O  0.50230730  0.96990318  0.44155924    -0.88800
C453        C  0.41927669  0.98473285  0.49527497     0.87200
Mg454      Mg  0.54397795  0.94313856  0.46046483     1.58100
O455        O  0.47100219  0.05387078  0.48616689    -0.88600
O456        O  0.49102308  0.01839189  0.41958724    -0.75900
C457        C  0.56908843  0.00292140  0.61254309     0.92200
O458        O  0.46900875  0.92425360  0.49683166    -0.75700
O459        O  0.57438199  0.97679058  0.59575532    -0.83200
Mg460      Mg  0.45478080  0.94701818  0.44625931     1.58000
C461        C  0.49480850  0.11163398  0.56633732     0.92200
O462        O  0.43948885  0.96646171  0.39365973    -0.81500
H463        H  0.49653506  0.08502675  0.45677579    -0.06800
C464        C  0.48217109  0.00175897  0.57283245     0.87100
O465        O  0.57040612  0.99191891  0.47291201    -0.76000
O466        O  0.43731877  0.98975831  0.47078080    -0.88800
O467        O  0.47008097  0.10189373  0.54919552    -0.81600
C468        C  0.38333955  0.07086358  0.49273783     0.92300
C469        C  0.42326571  0.99082362  0.38165802     0.92100
Mg470      Mg  0.53661466  0.04689827  0.54827286     1.58000
O471        O  0.55360030  0.02767940  0.60039379    -0.81500
O472        O  0.52195867  0.07009504  0.49773146    -0.75700
O473        O  0.39230224  0.05379751  0.46755055    -0.81600
O474        O  0.47162010  0.89970352  0.42338181    -0.83300
O475        O  0.59718634  0.93972890  0.52872907    -0.81600
C476        C  0.49616267  0.07042504  0.47942137     0.86600
O477        O  0.55401698  0.00432339  0.52352687    -0.88700
O478        O  0.48906418  0.02393832  0.55267219    -0.88900
O479        O  0.49917584  0.97541389  0.57472441    -0.75900
Mg480      Mg  0.44260055  0.03540686  0.44501664     1.58000
O481        O  0.40283613  0.07768051  0.51650605    -0.83300
H482        H  0.53017786  0.99005181  0.40534313    -0.07000
O483        O  0.52000072  0.94073461  0.50812163    -0.88600
H484        H  0.49476208  0.90939617  0.53755970    -0.06800
H485        H  0.58826831  0.03103487  0.49905282    -0.07000
C486        C  0.49495624  0.92398896  0.51491012     0.86500
C487        C  0.50859793  0.99233087  0.42139037     0.87100
C488        C  0.57188919  0.00968813  0.49893098     0.87200
H489        H  0.46045434  0.00445459  0.58864205    -0.07000
O490        O  0.42073890  0.00283394  0.52105206    -0.76000
Mg491      Mg  0.54754377  0.95844662  0.54968700     1.58000
H492        H  0.40263985  0.96360819  0.49522018    -0.07000
C493        C  0.49562874  0.88128326  0.43194553     0.92200
O494        O  0.59127058  0.91814187  0.47807702    -0.83200
C495        C  0.60881533  0.92446039  0.50360644     0.92200
O496        O  0.41570475  0.01601651  0.39912717    -0.83200
Mg497      Mg  0.44789904  0.05123614  0.53405546     1.58200
O498        O  0.52096719  0.89219612  0.44748615    -0.81600
O499        O  0.51924742  0.09300497  0.57284587    -0.83300
C500        C  0.25179546  0.13153630  0.49845978    -0.03000
O501        O  0.54682946  0.03168700  0.95982557    -0.88800
C502        C  0.54873627  0.93483481  0.98648641     0.87200
Mg503      Mg  0.54932054  0.07125270  0.99491704     1.58100
O504        O  0.47105417  0.96483542  0.96346136    -0.88600
O505        O  0.51346054  0.01502805  0.92019701    -0.75900
C506        C  0.44564594  0.02396435  0.11604663     0.92200
O507        O  0.58578545  0.99760837  0.01994867    -0.75700
O508        O  0.47137573  0.04221038  0.11264731    -0.83200
Mg509      Mg  0.58344950  0.99315473  0.96298491     1.58000
C510        C  0.38630301  0.94264276  0.01493625     0.92200
O511        O  0.58498002  0.98878418  0.90548932    -0.81500
H512        H  0.44149333  0.98589301  0.92960658    -0.06800
C513        C  0.48893053  0.96017235  0.06192568     0.87100
O514        O  0.49250870  0.07591156  0.99504723    -0.76000
O515        O  0.54446519  0.95783518  0.96651436    -0.88800
O516        O  0.41044021  0.92892676  0.99981008    -0.81600
C517        C  0.48639960  0.87966190  0.94217652     0.92300
C518        C  0.57180572  0.97315212  0.88123790     0.92100
Mg519      Mg  0.43436813  0.00429793  0.03409891     1.58000
O520        O  0.43250060  0.00925697  0.09119488    -0.81500
O521        O  0.43276666  0.00083586  0.97700961    -0.75700
O522        O  0.50394015  0.90269455  0.92924334    -0.81600
O523        O  0.62629137  0.02923493  0.96175334    -0.83300
O524        O  0.51419421  0.09533597  0.06820237    -0.81600
C525        C  0.44809512  0.98352874  0.95557989     0.86600
O526        O  0.47377469  0.03957718  0.03135627    -0.88700
O527        O  0.47105841  0.96616554  0.03758988    -0.88900
O528        O  0.50623553  0.98251013  0.07603629    -0.75900
Mg529      Mg  0.50880914  0.95866250  0.92699881     1.58000
O530        O  0.46649926  0.88505971  0.96601304    -0.83300
H531        H  0.52893811  0.06260179  0.92541409    -0.07000
O532        O  0.54813784  0.03437198  0.03382295    -0.88600
H533        H  0.57864520  0.01383388  0.06720991    -0.06800
H534        H  0.44383753  0.07107478  0.00753516    -0.07000
C535        C  0.57129651  0.01570610  0.04134705     0.86500
C536        C  0.53013457  0.03753150  0.93469964     0.87100
C537        C  0.46899440  0.06266833  0.01163709     0.87200
H538        H  0.49078677  0.93493475  0.07071163    -0.07000
O539        O  0.52480179  0.92187793  0.00275829    -0.76000
Mg540      Mg  0.51020329  0.03903498  0.07062799     1.58000
H541        H  0.57380454  0.92619795  0.99104707    -0.07000
C542        C  0.63045554  0.05554396  0.97857152     0.92200
O543        O  0.54897765  0.11632963  0.03061290    -0.83200
C544        C  0.52834242  0.12014515  0.05446929     0.92200
O545        O  0.54733475  0.95362321  0.88577405    -0.83200
Mg546      Mg  0.46789378  0.92775315  0.00168617     1.58200
O547        O  0.60652640  0.07030144  0.99323523    -0.81600
O548        O  0.39068347  0.96722297  0.03436962    -0.83300
C549        C  0.49371250  0.24659289  0.11990307    -0.03000
O550        O  0.52247977  0.55214384  0.01225060    -0.88800
C551        C  0.51655790  0.50554036  0.92328950     0.87200
Mg552      Mg  0.54780944  0.53015925  0.05403342     1.58100
O553        O  0.44227876  0.50804683  0.96775171    -0.88600
O554        O  0.47352335  0.57170605  0.99803784    -0.75900
C555        C  0.48714503  0.37828767  0.05977961     0.92200
O556        O  0.57363321  0.50267564  0.97800327    -0.75700
O557        O  0.51273429  0.39471819  0.06822101    -0.83200
Mg558      Mg  0.54918784  0.55293412  0.96629469     1.58000
C559        C  0.38329288  0.43017742  0.98173471     0.92200
O560        O  0.52769606  0.60499940  0.95274826    -0.81500
H561        H  0.40852368  0.53502837  0.99195642    -0.06800
C562        C  0.49570096  0.42400143  0.97693158     0.87100
O563        O  0.49770851  0.51396579  0.07626849    -0.76000
O564        O  0.50891347  0.52798984  0.94275885    -0.88800
O565        O  0.39566546  0.44715404  0.95798677    -0.81600
C566        C  0.43435821  0.50878202  0.87732642     0.92300
C567        C  0.50398740  0.61743539  0.93567095     0.92100
Mg568      Mg  0.44548588  0.44338733  0.02926771     1.58000
O569        O  0.46340517  0.39085959  0.04316208    -0.81500
O570        O  0.42289706  0.49391922  0.01699208    -0.75700
O571        O  0.44869338  0.53336883  0.89142188    -0.81600
O572        O  0.59454534  0.57683083  0.98973405    -0.83300
O573        O  0.54811368  0.45719508  0.10142306    -0.81600
C574        C  0.42363318  0.51300814  0.99178885     0.86600
O575        O  0.48679842  0.46664300  0.05205006    -0.88700
O576        O  0.47198222  0.44233652  0.98333835    -0.88900
O577        O  0.52075390  0.42186344  0.99597838    -0.75900
Mg578      Mg  0.46148922  0.55130801  0.94555640     1.58000
O579        O  0.42629684  0.48300001  0.89371827    -0.83300
H580        H  0.49683378  0.58302887  0.04132884    -0.07000
O581        O  0.55313224  0.48583264  0.02591502    -0.88600
H582        H  0.58809247  0.46058441  0.00146255    -0.06800
H583        H  0.45756620  0.48531915  0.08771960    -0.07000
C584        C  0.57243517  0.48221759  0.00215097     0.86500
C585        C  0.49790750  0.56962747  0.01813880     0.87100
C586        C  0.47997770  0.48810329  0.07283443     0.87200
H587        H  0.49561921  0.41027455  0.95389874    -0.07000
O588        O  0.49904513  0.47940726  0.92028692    -0.76000
Mg589      Mg  0.53335432  0.44201254  0.04776724     1.58000
H590        H  0.53950692  0.50774084  0.90916700    -0.07000
C591        C  0.61196287  0.56616922  0.01390000     0.92200
O592        O  0.57164509  0.50730679  0.09974738    -0.83200
C593        C  0.56451470  0.48053681  0.11507733     0.92200
O594        O  0.47989885  0.59987449  0.92526682    -0.83200
Mg595      Mg  0.44819036  0.46309973  0.94101734     1.58200
O596        O  0.59998026  0.54709273  0.03624525    -0.81600
O597        O  0.40008910  0.42124548  0.00687079    -0.83300
O598        O  0.95150986  0.55359447  0.53085533    -0.88800
C599        C  0.05037768  0.53703516  0.53583085     0.87200
Mg600      Mg  0.91627403  0.51384566  0.53441212     1.58100
O601        O  0.02081034  0.55132473  0.45524711    -0.88600
O602        O  0.96595035  0.59166595  0.49433383    -0.75900
C603        C  0.97769361  0.39239476  0.44013567     0.92200
O604        O  0.99048305  0.49976779  0.57325920    -0.75700
O605        O  0.95902383  0.39581811  0.46547339    -0.83200
Mg606      Mg  0.98888910  0.55662961  0.56820873     1.58000
C607        C  0.04957535  0.49424416  0.37551740     0.92200
O608        O  0.98811383  0.61509859  0.56808391    -0.81500
H609        H  0.99661474  0.58017265  0.42292656    -0.06800
C610        C  0.03434268  0.45513127  0.48090512     0.87100
O611        O  0.91358330  0.51103950  0.47740950    -0.76000
O612        O  0.02581730  0.55445195  0.52995036    -0.88800
O613        O  0.06171229  0.51153962  0.39907075    -0.81600
C614        C  0.10515184  0.57964954  0.47113278     0.92300
C615        C  0.00437479  0.63868788  0.55406449     0.92100
Mg616      Mg  0.98883035  0.47438196  0.42340205     1.58000
O617        O  0.99059164  0.41742460  0.42543046    -0.81500
O618        O  0.98687648  0.53109579  0.41765451    -0.75700
O619        O  0.08146882  0.59264406  0.48801254    -0.81600
O620        O  0.95117215  0.55531066  0.61021842    -0.83300
O621        O  0.90007934  0.43766965  0.50002764    -0.81600
C622        C  0.00162150  0.55531131  0.43154415     0.86600
O623        O  0.95295519  0.47666259  0.46165203    -0.88700
O624        O  0.02606638  0.47738272  0.46136945    -0.88900
O625        O  0.01329813  0.43996432  0.49908282    -0.75900
Mg626      Mg  0.02321332  0.59062553  0.49125950     1.58000
O627        O  0.09976920  0.55565815  0.45166689    -0.83300
H628        H  0.91822888  0.58306598  0.50883439    -0.07000
O629        O  0.95673476  0.47957373  0.53544759    -0.88600
H630        H  0.98041639  0.45078989  0.56812966    -0.06800
H631        H  0.92069452  0.49658586  0.42959825    -0.07000
C632        C  0.97563035  0.47560064  0.55939468     0.86500
C633        C  0.94415741  0.57645480  0.51167258     0.87100
C634        C  0.92862794  0.49430914  0.45523436     0.87200
H635        H  0.06047982  0.44937501  0.48358115    -0.07000
O636        O  0.06511665  0.52073821  0.51315058    -0.76000
Mg637      Mg  0.95643129  0.44024219  0.50038594     1.58000
H638        H  0.05903986  0.53489260  0.56122672    -0.07000
C639        C  0.92927818  0.53307800  0.61588565     0.92200
O640        O  0.87549719  0.47389755  0.53345107    -0.83200
C641        C  0.87408984  0.44940856  0.51349417     0.92200
O642        O  0.02269802  0.63371737  0.52856942    -0.83200
Mg643      Mg  0.06078982  0.51636479  0.45612474     1.58200
O644        O  0.91675944  0.51529913  0.59270011    -0.81600
O645        O  0.02540074  0.47438484  0.38024852    -0.83300
O646        O  0.03458433  0.46394722  0.03499535    -0.88800
C647        C  0.03747427  0.56156405  0.01512013     0.87200
Mg648      Mg  0.04031550  0.42834168  0.99746951     1.58100
O649        O  0.95731337  0.52994855  0.02688117    -0.88600
O650        O  0.99485729  0.47641906  0.07025190    -0.75900
C651        C  0.94938889  0.47987247  0.86952795     0.92200
O652        O  0.07831534  0.50272071  0.98015820    -0.75700
O653        O  0.97436459  0.46188344  0.87604337    -0.83200
Mg654      Mg  0.07134189  0.50263333  0.03684327     1.58000
C655        C  0.87757366  0.55347151  0.96927287     0.92200
O656        O  0.06860934  0.50363926  0.09396170    -0.81500
H657        H  0.92382983  0.50649581  0.05546802    -0.06800
C658        C  0.98581965  0.54176500  0.93110843     0.87100
O659        O  0.98350782  0.42336197  0.99186591    -0.76000
O660        O  0.03138215  0.53691630  0.03259256    -0.88800
O661        O  0.90194266  0.56628557  0.98518858    -0.81600
C662        C  0.97292250  0.61454433  0.05602258     0.92300
C663        C  0.05216654  0.51673877  0.11766098     0.92100
Mg664      Mg  0.92826383  0.49577297  0.94963252     1.58000
O665        O  0.93319145  0.49539757  0.89196912    -0.81500
O666        O  0.92042038  0.49535913  0.00636136    -0.75700
O667        O  0.98787478  0.59000434  0.06930971    -0.81600
O668        O  0.11645693  0.46762871  0.03816358    -0.83300
O669        O  0.01136049  0.40668661  0.91960849    -0.81600
C670        C  0.93341961  0.51082381  0.03064504     0.86600
O671        O  0.96766338  0.46075191  0.95522804    -0.88700
O672        O  0.96532368  0.53428496  0.95297802    -0.88900
O673        O  0.00463368  0.52032891  0.91769821    -0.75900
Mg674      Mg  0.99109718  0.53290422  0.06778317     1.58000
O675        O  0.95405970  0.61057343  0.03088579    -0.83300
H676        H  0.01275841  0.42998089  0.06411101    -0.07000
O677        O  0.04173573  0.46718289  0.96110901    -0.88600
H678        H  0.07462078  0.49012705  0.93143198    -0.06800
H679        H  0.93597882  0.42800576  0.97553727    -0.07000
C680        C  0.06538680  0.48635663  0.95651635     0.86500
C681        C  0.01459595  0.45577339  0.05704946     0.87100
C682        C  0.96142714  0.43692694  0.97379167     0.87200
H683        H  0.98858964  0.56745931  0.92401202    -0.07000
O684        O  0.01534570  0.57557924  0.99748992    -0.76000
Mg685      Mg  0.00811178  0.46354887  0.92060398     1.58000
H686        H  0.06279345  0.57087686  0.01397772    -0.07000
C687        C  0.12145348  0.44420300  0.01755567     0.92200
O688        O  0.04431403  0.38768138  0.95978724    -0.83200
C689        C  0.02643368  0.38309161  0.93422916     0.92200
O690        O  0.02536942  0.53271267  0.11285491    -0.83200
Mg691      Mg  0.95874723  0.56974566  0.99137408     1.58200
O692        O  0.09726496  0.43047551  0.00234828    -0.81600
O693        O  0.88264371  0.53102712  0.94756417    -0.83300
C694        C  0.12081264  0.50621121  0.24688511    -0.03000
O695        O  0.52290371  0.52776566  0.46245873    -0.88800
C696        C  0.42460533  0.50790661  0.44901482     0.87200
Mg697      Mg  0.56131757  0.49157614  0.46039138     1.58100
O698        O  0.44994497  0.52272585  0.53037914    -0.88600
O699        O  0.50523204  0.56627048  0.49620826    -0.75900
C700        C  0.50402765  0.36688532  0.55215021     0.92200
O701        O  0.48996840  0.47271325  0.41679887    -0.75700
O702        O  0.52379178  0.37255280  0.52801137    -0.83200
Mg703      Mg  0.48816269  0.52955718  0.42204299     1.58000
C704        C  0.42347595  0.46854433  0.60844523     0.92200
O705        O  0.48728164  0.58700226  0.42354078    -0.81500
H706        H  0.47234293  0.55217492  0.56336528    -0.06800
C707        C  0.44414448  0.42561134  0.50414303     0.87100
O708        O  0.56208113  0.48692882  0.51720806    -0.76000
O709        O  0.44840580  0.52571397  0.45711409    -0.88800
O710        O  0.41182357  0.48415000  0.58360538    -0.81600
C711        C  0.36556459  0.55071154  0.51240922     0.92300
C712        C  0.47058131  0.61043436  0.43660979     0.92100
Mg713      Mg  0.48410090  0.44684273  0.56427950     1.58000
O714        O  0.48519043  0.38918839  0.56429873    -0.81500
O715        O  0.48359674  0.50361754  0.56889541    -0.75700
O716        O  0.39056155  0.56408443  0.49780436    -0.81600
O717        O  0.52799099  0.53187989  0.38216900    -0.83300
O718        O  0.58327965  0.41387062  0.49264609    -0.81600
C719        C  0.46835384  0.52725969  0.55463958     0.86600
O720        O  0.52317657  0.45066006  0.52914508    -0.88700
O721        O  0.44909400  0.44857830  0.52392207    -0.88900
O722        O  0.46783986  0.41118102  0.48903981    -0.75900
Mg723      Mg  0.44819696  0.56227329  0.49579594     1.58000
O724        O  0.36861916  0.52384283  0.52877762    -0.83300
H725        H  0.55398893  0.55940263  0.48493795    -0.07000
O726        O  0.52409954  0.45370948  0.45510276    -0.88600
H727        H  0.50265737  0.42438486  0.42137252    -0.06800
H728        H  0.55292414  0.46992814  0.56390172    -0.07000
C729        C  0.50593867  0.44922603  0.43060625     0.86500
C730        C  0.52848548  0.55150971  0.48095834     0.87100
C731        C  0.54649775  0.46868607  0.53782902     0.87200
H732        H  0.41873823  0.41807419  0.49891648    -0.07000
O733        O  0.40894059  0.49010743  0.47008831    -0.76000
Mg734      Mg  0.52512396  0.41454965  0.49086295     1.58000
H735        H  0.41767388  0.50657261  0.42305276    -0.07000
C736        C  0.55306633  0.51318640  0.37912175     0.92200
O737        O  0.60412632  0.45429406  0.46068494    -0.83200
C738        C  0.60789433  0.42857151  0.47875032     0.92200
O739        O  0.44929959  0.60541125  0.45958834    -0.83200
Mg740      Mg  0.41136364  0.48601546  0.52709316     1.58200
O741        O  0.56457816  0.49715686  0.40395059    -0.81600
O742        O  0.44514310  0.44601642  0.60489226    -0.83300
C743        C  0.00163488  0.76306459  0.63311638    -0.03000
O744        O  0.29821179  0.78520813  0.78295509    -0.88800
C745        C  0.26846211  0.69043769  0.78837163     0.87200
Mg746      Mg  0.26451133  0.82532620  0.78607162     1.58100
O747        O  0.28992097  0.71741964  0.70849991    -0.88600
O748        O  0.33585126  0.76763381  0.74779281    -0.75900
C749        C  0.13816494  0.78092730  0.68628791     0.92200
O750        O  0.23771374  0.75393145  0.82382217    -0.75700
O751        O  0.14342693  0.79977838  0.71123405    -0.83200
Mg752      Mg  0.29459307  0.74748195  0.82086149     1.58000
C753        C  0.23437533  0.69590682  0.62691024     0.92200
O754        O  0.35121617  0.74101556  0.82047239    -0.81500
H755        H  0.32329647  0.73776577  0.67747267    -0.06800
C756        C  0.19141275  0.71779468  0.72948003     0.87100
O757        O  0.26300462  0.83032520  0.72902475    -0.76000
O758        O  0.28951596  0.71216523  0.78252947    -0.88800
O759        O  0.24798021  0.68104969  0.65140701    -0.81600
C760        C  0.30961965  0.63199923  0.72658492     0.92300
C761        C  0.37567912  0.72634840  0.80676325     0.92100
Mg762      Mg  0.21940515  0.75972209  0.67320661     1.58000
O763        O  0.16165052  0.76476328  0.67235149    -0.81500
O764        O  0.27621818  0.75437356  0.67066240    -0.75700
O765        O  0.32488862  0.65537548  0.74138432    -0.81600
O766        O  0.29797331  0.78335281  0.86471197    -0.83300
O767        O  0.19008571  0.85549163  0.75212776    -0.81600
C768        C  0.29745643  0.73607595  0.68510566     0.86600
O769        O  0.22417510  0.79619818  0.71125982    -0.88700
O770        O  0.21578174  0.72234714  0.71113106    -0.88900
O771        O  0.17856945  0.74110125  0.74631238    -0.75900
Mg772      Mg  0.32797546  0.71148046  0.74498713     1.58000
O773        O  0.28364704  0.63699367  0.70930734    -0.83300
H774        H  0.33236750  0.81536272  0.76288968    -0.07000
O775        O  0.22402620  0.79080011  0.78584491    -0.88600
H776        H  0.19064191  0.77078074  0.81713387    -0.06800
H777        H  0.24925907  0.82649006  0.68061708    -0.07000
C778        C  0.21647255  0.77222973  0.80931348     0.86500
C779        C  0.32267944  0.79044545  0.76496679     0.87100
C780        C  0.24516477  0.81816461  0.70593400     0.87200
H781        H  0.18147365  0.69302931  0.73216067    -0.07000
O782        O  0.25026113  0.67819051  0.76570499    -0.76000
Mg783      Mg  0.18628029  0.79743228  0.74887430     1.58000
H784        H  0.26440082  0.68266097  0.81391775    -0.07000
C785        C  0.28025578  0.80908356  0.86831812     0.92200
O786        O  0.23013211  0.87009646  0.78778789    -0.83200
C787        C  0.20555237  0.87736859  0.76926716     0.92200
O788        O  0.37139883  0.70739048  0.78186711    -0.83200
Mg789      Mg  0.24958121  0.68194134  0.70887519     1.58200
O790        O  0.26699096  0.82337349  0.84321462    -0.81600
O791        O  0.21796513  0.72256416  0.63061658    -0.83300
C792        C  0.50260467  0.75117258  0.87637853    -0.03000
C793        C  0.43586266  0.71050806  0.81725224    -0.09700
C794        C  0.40973404  0.73351210  0.81945527     0.06500
C795        C  0.41655451  0.76433592  0.83393072    -0.03400
C796        C  0.44663129  0.76990416  0.84956931    -0.07900
C797        C  0.47300258  0.74642290  0.85060019     0.05700
C798        C  0.46724702  0.71674920  0.83203648    -0.02900
Br799      Br  0.49962651  0.68227060  0.82740755    -0.02600
H800        H  0.43158533  0.68707854  0.80487855     0.09600
H801        H  0.44704920  0.79287785  0.86280490     0.07600
Br802      Br  0.38610621  0.80120361  0.83390047    -0.03000
C803        C  0.06338659  0.77646496  0.62909983    -0.09700
C804        C  0.03690436  0.76568914  0.65028174     0.06500
C805        C  0.04531210  0.76039218  0.68444532    -0.03400
C806        C  0.07804989  0.76669898  0.69559355    -0.07900
C807        C  0.10361711  0.77662326  0.67374162     0.05700
C808        C  0.09602029  0.78057230  0.64001787    -0.02900
Br809      Br  0.12919105  0.79192958  0.60745192    -0.02600
H810        H  0.05868910  0.78059944  0.60288627     0.09600
H811        H  0.08379179  0.76323347  0.72168605     0.07600
Br812      Br  0.01462789  0.74783318  0.71894889    -0.03000
C813        C  0.09594298  0.53297919  0.15596457    -0.09700
C814        C  0.06677674  0.51539203  0.15112802     0.06500
C815        C  0.05485690  0.49472261  0.17661513    -0.03400
C816        C  0.07306417  0.49128110  0.20622836    -0.07900
C817        C  0.10177836  0.51069282  0.21293718     0.05700
C818        C  0.11350133  0.53128843  0.18572304    -0.02900
Br819      Br  0.15304635  0.55844604  0.18263903    -0.02600
H820        H  0.10540972  0.54823960  0.13576291     0.09600
H821        H  0.06424463  0.47326193  0.22405722     0.07600
Br822      Br  0.01424550  0.47026021  0.17169263    -0.03000
C823        C  0.97527619  0.69172370  0.57082385    -0.09700
C824        C  0.00413927  0.67227973  0.56947025     0.06500
C825        C  0.03290635  0.68453942  0.58447147    -0.03400
C826        C  0.03200590  0.71371985  0.60299181    -0.07900
C827        C  0.00304328  0.73392801  0.60616217     0.05700
C828        C  0.97462684  0.72246485  0.58783355    -0.02900
Br829      Br  0.93285123  0.74548210  0.58650313    -0.02600
H830        H  0.95293124  0.68281769  0.55877059     0.09600
H831        H  0.05439734  0.71815431  0.61672995     0.07600
Br832      Br  0.07400680  0.66044032  0.58327081    -0.03000
C833        C  0.10003831  0.49453441  0.34114140    -0.09700
C834        C  0.06559294  0.49658837  0.34244709     0.06500
C835        C  0.04796666  0.50180159  0.31273516    -0.03400
C836        C  0.06516867  0.50598006  0.28249206    -0.07900
C837        C  0.10030795  0.50376977  0.28048498     0.05700
C838        C  0.11730237  0.49702752  0.31117497    -0.02900
Br839      Br  0.16390327  0.48731805  0.31558621    -0.02600
H840        H  0.11376358  0.48981503  0.36385552     0.09600
H841        H  0.05033878  0.51151192  0.26094648     0.07600
Br842      Br  0.00043143  0.50488310  0.31227393    -0.03000
C843        C  0.53286260  0.69945573  0.90129007    -0.09700
C844        C  0.50330189  0.71886320  0.89899905     0.06500
C845        C  0.47423665  0.70415222  0.91349525    -0.03400
C846        C  0.47513750  0.67150998  0.92605537    -0.07900
C847        C  0.50467044  0.65303952  0.92660829     0.05700
C848        C  0.53396803  0.66817507  0.91567036    -0.02900
Br849      Br  0.57627988  0.64609443  0.91556862    -0.02600
H850        H  0.55596086  0.70651080  0.88994782     0.09600
H851        H  0.45235418  0.66022791  0.93507101     0.07600
Br852      Br  0.43143093  0.72507011  0.91539350    -0.03000
C853        C  0.47677355  0.34022963  0.10545088    -0.09700
C854        C  0.48428284  0.34431230  0.07202957     0.06500
C855        C  0.49277645  0.31674225  0.05270800    -0.03400
C856        C  0.49554625  0.28544562  0.06771329    -0.07900
C857        C  0.48971207  0.28092532  0.10219942     0.05700
C858        C  0.47900027  0.30944905  0.12067365    -0.02900
Br859      Br  0.47096102  0.31095388  0.16795438    -0.02600
H860        H  0.47038002  0.36167460  0.12027784     0.09600
H861        H  0.50175951  0.26477171  0.05199082     0.07600
Br862      Br  0.50122702  0.32105281  0.00594870    -0.03000
C863        C  0.49708478  0.84516620  0.89379903    -0.09700
C864        C  0.48872230  0.84644015  0.92735202     0.06500
C865        C  0.48377552  0.81658622  0.94507621    -0.03400
C866        C  0.48778083  0.78608611  0.92886910    -0.07900
C867        C  0.49683809  0.78453531  0.89492054     0.05700
C868        C  0.50103848  0.81542136  0.87749510    -0.02900
Br869      Br  0.50780930  0.82077130  0.83015066    -0.02600
H870        H  0.49999801  0.86787035  0.87959861     0.09600
H871        H  0.48511155  0.76376419  0.94346480     0.07600
Br872      Br  0.47409259  0.81565478  0.99183210    -0.03000
C873        C  0.54090782  0.18083640  0.06499238    -0.09700
C874        C  0.51881104  0.15380147  0.06630075     0.06500
C875        C  0.48693660  0.15911119  0.07962959    -0.03400
C876        C  0.47917735  0.18905583  0.09451606    -0.07900
C877        C  0.50158659  0.21635544  0.09604786     0.05700
C878        C  0.53269802  0.21178100  0.07921837    -0.02900
Br879      Br  0.56655117  0.24535014  0.07558499    -0.02600
H880        H  0.56516332  0.17762512  0.05379178     0.09600
H881        H  0.45534782  0.18907401  0.10657006     0.07600
Br882      Br  0.45152512  0.12670183  0.07877615    -0.03000
C883        C  0.32248184  0.06446615  0.50359536    -0.09700
C884        C  0.34973834  0.08451974  0.49454481     0.06500
C885        C  0.34543561  0.11860084  0.49116621    -0.03400
C886        C  0.31387852  0.13184332  0.49401032    -0.07900
C887        C  0.28500212  0.11185153  0.49944897     0.05700
C888        C  0.29031361  0.07780933  0.50712276    -0.02900
Br889      Br  0.25762860  0.04870198  0.52640530    -0.02600
H890        H  0.32647984  0.03847224  0.50892155     0.09600
H891        H  0.31149045  0.15816245  0.48952625     0.07600
Br892      Br  0.38140816  0.14788050  0.47935099    -0.03000
C893        C  0.99876996  0.85984347  0.62364864    -0.09700
C894        C  0.99019230  0.86443567  0.59056827     0.06500
C895        C  0.98634749  0.83642960  0.57012103    -0.03400
C896        C  0.99089116  0.80432234  0.58333535    -0.07900
C897        C  0.99760156  0.79899952  0.61755398     0.05700
C898        C  0.00263660  0.82844512  0.63728018    -0.02900
Br899      Br  0.01158892  0.83022055  0.68440942    -0.02600
H900        H  0.00236388  0.88134451  0.63939333     0.09600
H901        H  0.98936130  0.78377739  0.56631969     0.07600
Br902      Br  0.97711072  0.84098227  0.52358708    -0.03000
C903        C  0.16951811  0.07859698  0.48726806    -0.09700
C904        C  0.14868611  0.09227290  0.51152382     0.06500
C905        C  0.16139479  0.11672923  0.53229743    -0.03400
C906        C  0.19387395  0.12810361  0.52780246    -0.07900
C907        C  0.21667753  0.11405130  0.50430105     0.05700
C908        C  0.20285182  0.08883237  0.48348921    -0.02900
Br909      Br  0.22599989  0.06692172  0.44837925    -0.02600
H910        H  0.15954917  0.05985613  0.47074557     0.09600
H911        H  0.19998768  0.14957671  0.54250358     0.07600
Br912      Br  0.13427069  0.13767805  0.56546976    -0.03000
C913        C  0.39937335  0.98279301  0.18697960    -0.09700
C914        C  0.39791781  0.00692625  0.21279220     0.06500
C915        C  0.41527842  0.03734386  0.20566301    -0.03400
C916        C  0.43092080  0.04263077  0.17444785    -0.07900
C917        C  0.43095313  0.01813725  0.14967348     0.05700
C918        C  0.41657583  0.98739494  0.15732706    -0.02900
Br919      Br  0.42044968  0.94919104  0.12896545    -0.02600
H920        H  0.38594298  0.95990216  0.18767216     0.09600
H921        H  0.44278535  0.06623939  0.16939543     0.07600
Br922      Br  0.41923504  0.07343480  0.23646580    -0.03000
C923        C  0.36871408  0.98930691  0.30576728    -0.09700
C924        C  0.39106204  0.99634521  0.27904119     0.06500
C925        C  0.42564435  0.99609415  0.28699144    -0.03400
C926        C  0.43572117  0.99333006  0.32053807    -0.07900
C927        C  0.41251080  0.98992737  0.34652819     0.05700
C928        C  0.37887474  0.98710242  0.33871187    -0.02900
Br929      Br  0.34548725  0.98074574  0.37233796    -0.02600
H930        H  0.34227240  0.98769348  0.30111167     0.09600
H931        H  0.46195843  0.99420940  0.32646839     0.07600
Br932      Br  0.46135363  0.99628944  0.25524954    -0.03000
C933        C  0.19334941  0.40172957  0.97464913    -0.09700
C934        C  0.21944129  0.40195701  0.99857183     0.06500
C935        C  0.21373038  0.42249623  0.02699075    -0.03400
C936        C  0.18210223  0.43658150  0.03277942    -0.07900
C937        C  0.15590493  0.43268884  0.00999442     0.05700
C938        C  0.16312413  0.41749548  0.97942404    -0.02900
Br939      Br  0.13316416  0.41703268  0.94201875    -0.02600
H940        H  0.19404286  0.38726722  0.95226801     0.09600
H941        H  0.17780211  0.45002328  0.05567750     0.07600
Br942      Br  0.24681652  0.43163555  0.06010924    -0.03000
C943        C  0.28942876  0.42650602  0.98791487    -0.09700
C944        C  0.28437193  0.39189934  0.99043763     0.06500
C945        C  0.31282679  0.37111595  0.98504720    -0.03400
C946        C  0.34406782  0.38474637  0.98025489    -0.07900
C947        C  0.34886803  0.41868925  0.98008333     0.05700
C948        C  0.32143021  0.43989135  0.98334303    -0.02900
Br949      Br  0.32689278  0.48706113  0.98405454    -0.02600
H950        H  0.26882601  0.44340877  0.98993139     0.09600
H951        H  0.36535061  0.36850247  0.97808369     0.07600
Br952      Br  0.31372930  0.32356984  0.98834461    -0.03000
C953        C  0.11906618  0.44329959  0.25487078    -0.09700
C954        C  0.13812136  0.47103782  0.24336390     0.06500
C955        C  0.16824896  0.46252317  0.22621875    -0.03400
C956        C  0.17947226  0.42938610  0.22570675    -0.07900
C957        C  0.16125579  0.40352501  0.24043843     0.05700
C958        C  0.13040804  0.41088924  0.25465333    -0.02900
Br959      Br  0.10104228  0.37769361  0.27303869    -0.02600
H960        H  0.09429988  0.44622962  0.26472251     0.09600
H961        H  0.20277642  0.42367935  0.21349194     0.07600
Br962      Br  0.19556711  0.49138887  0.19998838    -0.03000
C963        C  0.26138262  0.14860147  0.40211832    -0.09700
C964        C  0.23554867  0.17033559  0.39555788     0.06500
C965        C  0.21605378  0.18107534  0.42278132    -0.03400
C966        C  0.22288754  0.16946924  0.45534387    -0.07900
C967        C  0.24909781  0.14705728  0.46229842     0.05700
C968        C  0.26768818  0.13584199  0.43343286    -0.02900
Br969      Br  0.29906793  0.09969684  0.42757757    -0.02600
H970        H  0.27657682  0.13977132  0.38173813     0.09600
H971        H  0.20711484  0.17768207  0.47552159     0.07600
Br972      Br  0.17985726  0.21132489  0.41755448    -0.03000
C973        C  0.45260383  0.23539904  0.16991736    -0.09700
C974        C  0.45801425  0.24134312  0.13558966     0.06500
C975        C  0.42870053  0.24415463  0.11520002    -0.03400
C976        C  0.39702710  0.24365848  0.12916643    -0.07900
C977        C  0.39214965  0.23903477  0.16304569     0.05700
C978        C  0.42016803  0.23421133  0.18356198    -0.02900
Br979      Br  0.41544311  0.22897010  0.23073166    -0.02600
H980        H  0.47345472  0.23337758  0.18665041     0.09600
H981        H  0.37561871  0.24657748  0.11310340     0.07600
Br982      Br  0.42802088  0.24672611  0.06727531    -0.03000
C983        C  0.35165529  0.05410181  0.27480420    -0.09700
C984        C  0.35139981  0.03350502  0.24590051     0.06500
C985        C  0.33386440  0.04654765  0.21789213    -0.03400
C986        C  0.31879416  0.07799578  0.21945059    -0.07900
C987        C  0.31977902  0.09735968  0.24847080     0.05700
C988        C  0.33587181  0.08465229  0.27643920    -0.02900
Br989      Br  0.34165508  0.10988346  0.31658944    -0.02600
H990        H  0.36657010  0.04887675  0.29624005     0.09600
H991        H  0.30652392  0.08763673  0.19755193     0.07600
Br992      Br  0.32949584  0.02374254  0.17617146    -0.03000
C993        C  0.22042779  0.33061786  0.07765382    -0.09700
C994        C  0.24959478  0.33135074  0.09672206     0.06500
C995        C  0.27862086  0.34419098  0.08270344    -0.03400
C996        C  0.27775927  0.35772611  0.05106954    -0.07900
C997        C  0.24909675  0.35678366  0.03020282     0.05700
C998        C  0.21979605  0.34273280  0.04485506    -0.02900
Br999      Br  0.17738860  0.33942178  0.02293225    -0.02600
H1000       H  0.19779239  0.32062194  0.08846716     0.09600
H1001       H  0.30019882  0.37077552  0.04457553     0.07600
Br1002     Br  0.31998799  0.34739955  0.10652802    -0.03000
C1003       C  0.98967438  0.29877296  0.42806302    -0.09700
C1004       C  0.99068053  0.29656466  0.39294541     0.06500
C1005       C  0.99195571  0.32734459  0.37499222    -0.03400
C1006       C  0.98901768  0.35744326  0.39145603    -0.07900
C1007       C  0.98374907  0.35905018  0.42570335     0.05700
C1008       C  0.98483225  0.32929053  0.44430204    -0.02900
Br1009     Br  0.98104775  0.32863117  0.49187971    -0.02600
H1010       H  0.99213243  0.27687365  0.44327174     0.09600
H1011       H  0.98882800  0.37997760  0.37673595     0.07600
Br1012     Br  0.99273037  0.33202968  0.32742270    -0.03000
C1013       C  0.02493523  0.20817897  0.39004753    -0.09700
C1014       C  0.99793680  0.23038237  0.39659791     0.06500
C1015       C  0.97317833  0.21785243  0.41903881    -0.03400
C1016       C  0.97586522  0.18582351  0.43279830    -0.07900
C1017       C  0.00270033  0.16502229  0.42542110     0.05700
C1018       C  0.02767481  0.17684241  0.40439626    -0.02900
Br1019     Br  0.06422465  0.14949103  0.39072525    -0.02600
H1020       H  0.04375107  0.21314172  0.37159682     0.09600
H1021       H  0.95616368  0.17662409  0.44884343     0.07600
Br1022     Br  0.93300414  0.24055314  0.43059222    -0.03000
C1023       C  0.05473036  0.27487015  0.37470729    -0.09700
C1024       C  0.02672862  0.26738902  0.35427313     0.06500
C1025       C  0.03327210  0.26269825  0.31952105    -0.03400
C1026       C  0.06635503  0.26221136  0.30803798    -0.07900
C1027       C  0.09316027  0.26684225  0.32970100     0.05700
C1028       C  0.08713061  0.27434708  0.36292319    -0.02900
Br1029     Br  0.12254662  0.28324147  0.39357675    -0.02600
H1030       H  0.05155807  0.27888457  0.40113763     0.09600
H1031       H  0.07130383  0.25780349  0.28191385     0.07600
Br1032     Br  0.00093650  0.25921847  0.28454346    -0.03000
C1033       C  0.95171699  0.98783926  0.18810374    -0.09700
C1034       C  0.93285454  0.97943365  0.15990107     0.06500
C1035       C  0.89855275  0.97525302  0.16351405    -0.03400
C1036       C  0.88391661  0.97789960  0.19467033    -0.07900
C1037       C  0.90155814  0.98830614  0.22354137     0.05700
C1038       C  0.93663571  0.99313245  0.21954085    -0.02900
Br1039     Br  0.96691356  0.00490578  0.25444175    -0.02600
H1040       H  0.97831432  0.99131812  0.18541697     0.09600
H1041       H  0.85725629  0.97411506  0.19590534     0.07600
Br1042     Br  0.86971690  0.96693904  0.12637921    -0.03000
C1043       C  0.89915612  0.97526471  0.31534575    -0.09700
C1044       C  0.89763643  0.99995630  0.29011331     0.06500
C1045       C  0.90794668  0.03252378  0.30062008    -0.03400
C1046       C  0.91643815  0.03895820  0.33425890    -0.07900
C1047       C  0.91621818  0.01381565  0.35852483     0.05700
C1048       C  0.90941966  0.98134171  0.34780796    -0.02900
Br1049     Br  0.91473764  0.94266935  0.37557094    -0.02600
H1050       H  0.89131868  0.95022143  0.31140891     0.09600
H1051       H  0.92279086  0.06400332  0.34155548     0.07600
Br1052     Br  0.91102482  0.07039809  0.27159145    -0.03000
C1053       C  0.85611082  0.04146580  0.21975313    -0.09700
C1054       C  0.85423015  0.02190755  0.24950205     0.06500
C1055       C  0.83206318  0.03406860  0.27456501    -0.03400
C1056       C  0.81635516  0.06500969  0.27068404    -0.07900
C1057       C  0.82002480  0.08370942  0.24144742     0.05700
C1058       C  0.83849659  0.07069629  0.21527470    -0.02900
Br1059     Br  0.84295823  0.09355739  0.17340962    -0.02600
H1060       H  0.87311159  0.03650034  0.19977019     0.09600
H1061       H  0.80124484  0.07464560  0.29077369     0.07600
Br1062     Br  0.82311963  0.01155428  0.31590416    -0.03000
C1063       C  0.90068357  0.26244928  0.34151227    -0.09700
C1064       C  0.89855791  0.23155909  0.32627813     0.06500
C1065       C  0.92806899  0.21317604  0.32282383    -0.03400
C1066       C  0.95790787  0.22500371  0.33685301    -0.07900
C1067       C  0.96030031  0.25573084  0.35395471     0.05700
C1068       C  0.92973586  0.27434818  0.35611648    -0.02900
Br1069     Br  0.91867378  0.31288700  0.38236359    -0.02600
H1070       H  0.87843876  0.27736708  0.34349956     0.09600
H1071       H  0.97966581  0.20943669  0.33494471     0.07600
Br1072     Br  0.92956467  0.17139226  0.30028199    -0.03000
C1073       C  0.56997319  0.22297326  0.17723257    -0.09700
C1074       C  0.58927617  0.25209923  0.17641887     0.06500
C1075       C  0.57578994  0.28002030  0.16105947    -0.03400
C1076       C  0.54465527  0.27841800  0.14581049    -0.07900
C1077       C  0.52449301  0.24909766  0.14491340     0.05700
C1078       C  0.53804745  0.22125820  0.16236856    -0.02900
Br1079     Br  0.51621694  0.17895944  0.16558889    -0.02600
H1080       H  0.57992944  0.20119387  0.18936007     0.09600
H1081       H  0.53846962  0.30053759  0.13235114     0.07600
Br1082     Br  0.60081976  0.32047007  0.15644575    -0.03000
C1083       C  0.00781689  0.29128463  0.92828442    -0.09700
C1084       C  0.01462036  0.28437785  0.89442069     0.06500
C1085       C  0.02482291  0.31214995  0.87419635    -0.03400
C1086       C  0.02821330  0.34369036  0.88779404    -0.07900
C1087       C  0.02256509  0.34930789  0.92135328     0.05700
C1088       C  0.01213298  0.32293793  0.94172859    -0.02900
Br1089     Br  0.00111200  0.32927148  0.98778779    -0.02600
H1090       H  0.99863675  0.27283043  0.94505803     0.09600
H1091       H  0.03601258  0.36412860  0.87201615     0.07600
Br1092     Br  0.03671083  0.31099819  0.82777629    -0.03000
C1093       C  0.01673697  0.21292241  0.93237644    -0.09700
C1094       C  0.00462125  0.21682673  0.89942552     0.06500
C1095       C  0.98947651  0.18790033  0.88489398    -0.03400
C1096       C  0.98499345  0.15907782  0.90330570    -0.07900
C1097       C  0.99574740  0.15648882  0.93591717     0.05700
C1098       C  0.01186381  0.18354089  0.95065161    -0.02900
Br1099     Br  0.02979700  0.18060534  0.99472119    -0.02600
H1100       H  0.03071553  0.23187371  0.94445707     0.09600
H1101       H  0.97333813  0.13779808  0.89166736     0.07600
Br1102     Br  0.97332918  0.18272869  0.84010978    -0.03000
C1103       C  0.10421670  0.23998974  0.85841308    -0.09700
C1104       C  0.10501717  0.22778840  0.82603548     0.06500
C1105       C  0.07428087  0.22028517  0.81075490    -0.03400
C1106       C  0.04401299  0.22712798  0.82725912    -0.07900
C1107       C  0.04282541  0.24167162  0.85931724     0.05700
C1108       C  0.07460006  0.24651673  0.87512559    -0.02900
Br1109     Br  0.08306871  0.26349446  0.91911913    -0.02600
H1110       H  0.12739357  0.24491048  0.87119745     0.09600
H1111       H  0.02169017  0.22075798  0.81430108     0.07600
Br1112     Br  0.07144045  0.20127898  0.76716511    -0.03000
C1113       C  0.23346343  0.30794165  0.92726646    -0.09700
C1114       C  0.23667678  0.32772450  0.89864772     0.06500
C1115       C  0.24467813  0.36135229  0.90220843    -0.03400
C1116       C  0.24920178  0.37427779  0.93363635    -0.07900
C1117       C  0.24482687  0.35546030  0.96337203     0.05700
C1118       C  0.23787328  0.32090458  0.95937760    -0.02900
Br1119     Br  0.23719908  0.28753557  0.99364790    -0.02600
H1120       H  0.22849958  0.28167284  0.92455106     0.09600
H1121       H  0.25426491  0.40061805  0.93497818     0.07600
Br1122     Br  0.24763678  0.39248988  0.86584711    -0.03000
C1123       C  0.27295125  0.20233702  0.56438225    -0.09700
C1124       C  0.27385614  0.18283627  0.59362968     0.06500
C1125       C  0.26794782  0.14874100  0.59077378    -0.03400
C1126       C  0.26005908  0.13527743  0.56023670    -0.07900
C1127       C  0.25838546  0.15384626  0.53018529     0.05700
C1128       C  0.26559872  0.18839103  0.53280428    -0.02900
Br1129     Br  0.26811740  0.21832837  0.49581069    -0.02600
H1130       H  0.27778700  0.22869201  0.56611837     0.09600
H1131       H  0.25516670  0.10898814  0.55992461     0.07600
Br1132     Br  0.27199423  0.11770293  0.62702999    -0.03000
C1133       C  0.53417232  0.29331406  0.60062131    -0.09700
C1134       C  0.50560771  0.27253255  0.60368261     0.06500
C1135       C  0.47634036  0.28367419  0.58671376    -0.03400
C1136       C  0.47629773  0.31416105  0.56970795    -0.07900
C1137       C  0.50479736  0.33404157  0.56808645     0.05700
C1138       C  0.53396957  0.32305096  0.58312965    -0.02900
Br1139     Br  0.57368740  0.34972586  0.58391144    -0.02600
H1140       H  0.55696600  0.28851302  0.61360771     0.09600
H1141       H  0.45368747  0.32258909  0.55785436     0.07600
Br1142     Br  0.43452799  0.26029461  0.58596490    -0.03000
C1143       C  0.50181608  0.14725443  0.61474632    -0.09700
C1144       C  0.49488508  0.14485570  0.58094811     0.06500
C1145       C  0.49013730  0.17380484  0.56219896    -0.03400
C1146       C  0.49327777  0.20480090  0.57746076    -0.07900
C1147       C  0.50028756  0.20792199  0.61187746     0.05700
C1148       C  0.50420363  0.17776828  0.63041428    -0.02900
Br1149     Br  0.51055445  0.17480766  0.67788826    -0.02600
H1150       H  0.50511300  0.12486312  0.62934775     0.09600
H1151       H  0.49170468  0.22625774  0.56150413     0.07600
Br1152     Br  0.48217012  0.17243909  0.51518124    -0.03000
C1153       C  0.43850105  0.28935048  0.68122292    -0.09700
C1154       C  0.41189356  0.26680072  0.68005312     0.06500
C1155       C  0.41842547  0.23427087  0.66971491    -0.03400
C1156       C  0.44938451  0.22614054  0.65690251    -0.07900
C1157       C  0.47587271  0.24938969  0.65375508     0.05700
C1158       C  0.47019494  0.28105235  0.66874882    -0.02900
Br1159     Br  0.50299216  0.31571071  0.67145861    -0.02600
H1160       H  0.43434641  0.31404713  0.69077281     0.09600
H1161       H  0.45059135  0.20153801  0.64704147     0.07600
Br1162     Br  0.38620020  0.19881084  0.67162507    -0.03000
C1163       C  0.28396701  0.83492836  0.96077038    -0.09700
C1164       C  0.25745744  0.85794098  0.96255575     0.06500
C1165       C  0.23870204  0.86237249  0.93208439    -0.03400
C1166       C  0.24548546  0.84345986  0.90417641    -0.07900
C1167       C  0.27301471  0.82293617  0.90203209     0.05700
C1168       C  0.29211525  0.81799752  0.93107847    -0.02900
Br1169     Br  0.33051973  0.79006434  0.93150035    -0.02600
H1170       H  0.29952768  0.83121190  0.98239010     0.09600
H1171       H  0.23002701  0.84694816  0.88239274     0.07600
Br1172     Br  0.20851889  0.89739906  0.91879204    -0.03000
C1173       C  0.30709141  0.89414613  0.02924583    -0.09700
C1174       C  0.28774590  0.89905395  0.99976382     0.06500
C1175       C  0.30455661  0.91756533  0.97409199    -0.03400
C1176       C  0.33619831  0.93181661  0.97966632    -0.07900
C1177       C  0.35248674  0.92873404  0.01024832     0.05700
C1178       C  0.33750969  0.90973155  0.03507606    -0.02900
Br1179     Br  0.35878834  0.90222172  0.07710111    -0.02600
H1180       H  0.30001071  0.87717379  0.04865493     0.09600
H1181       H  0.34835625  0.94543150  0.95975465     0.07600
Br1182     Br  0.28845937  0.92429620  0.92978165    -0.03000
C1183       C  0.18091750  0.94436057  0.98591505    -0.09700
C1184       C  0.15370179  0.92244079  0.98346462     0.06500
C1185       C  0.15915737  0.88841398  0.98588398    -0.03400
C1186       C  0.19119399  0.87690731  0.99059057    -0.07900
C1187       C  0.21966062  0.89822433  0.99194761     0.05700
C1188       C  0.21366305  0.93296962  0.98997206    -0.02900
Br1189     Br  0.24677530  0.96727919  0.99199698    -0.02600
H1190       H  0.17663939  0.97080413  0.98448485     0.09600
H1191       H  0.19422695  0.85028271  0.99091595     0.07600
Br1192     Br  0.12484063  0.85596844  0.97835731    -0.03000
C1193       C  0.24305409  0.82468095  0.02968721    -0.09700
C1194       C  0.24623289  0.85963246  0.02840231     0.06500
C1195       C  0.23957401  0.87708522  0.05886937    -0.03400
C1196       C  0.23410848  0.86022423  0.08848454    -0.07900
C1197       C  0.23295695  0.82591782  0.08979647     0.05700
C1198       C  0.23595984  0.80795856  0.05982655    -0.02900
Br1199     Br  0.23098213  0.76072698  0.05865361    -0.02600
H1200       H  0.24517429  0.81007946  0.00734524     0.09600
H1201       H  0.23079010  0.87433210  0.11116271     0.07600
Br1202     Br  0.24026815  0.92431875  0.06469718    -0.03000
C1203       C  0.30859833  0.92931802  0.22945272    -0.09700
C1204       C  0.32989108  0.90178768  0.22838572     0.06500
C1205       C  0.36353605  0.90665147  0.23639416    -0.03400
C1206       C  0.37548528  0.93852275  0.24217140    -0.07900
C1207       C  0.35518242  0.96726406  0.24010876     0.05700
C1208       C  0.32034613  0.96138515  0.23696298    -0.02900
Br1209     Br  0.28609836  0.99225723  0.24865242    -0.02600
H1210       H  0.28213916  0.92549050  0.22642285     0.09600
H1211       H  0.40189520  0.94119552  0.24654383     0.07600
Br1212     Br  0.39545885  0.87140586  0.23874983    -0.03000
C1213       C  0.13769111  0.59982143  0.26131839    -0.09700
C1214       C  0.17201164  0.60177045  0.26413517     0.06500
C1215       C  0.19068473  0.57229256  0.26251849    -0.03400
C1216       C  0.17450272  0.54149446  0.25890817    -0.07900
C1217       C  0.13983658  0.53929619  0.25382962     0.05700
C1218       C  0.12159349  0.56984773  0.25574102    -0.02900
Br1219     Br  0.07475908  0.57534706  0.24768261    -0.02600
H1220       H  0.12308815  0.62229471  0.26241445     0.09600
H1221       H  0.18949650  0.51954471  0.25946399     0.07600
Br1222     Br  0.23835562  0.57292327  0.26080509    -0.03000
C1223       C  0.05352215  0.77117940  0.14086760    -0.09700
C1224       C  0.03003752  0.74486375  0.14333193     0.06500
C1225       C  0.03696805  0.72063657  0.16845977    -0.03400
C1226       C  0.06855776  0.71924544  0.18328409    -0.07900
C1227       C  0.09367650  0.74211518  0.17519634     0.05700
C1228       C  0.08474768  0.76993001  0.15607670    -0.02900
Br1229     Br  0.11278197  0.80842505  0.15167087    -0.02600
H1230       H  0.04810594  0.79358161  0.12738486     0.09600
H1231       H  0.07397792  0.69888480  0.19999893     0.07600
Br1232     Br  0.00754096  0.68552905  0.18190702    -0.03000
C1233       C  0.01087484  0.65357779  0.08481831    -0.09700
C1234       C  0.98024303  0.64850713  0.06906376     0.06500
C1235       C  0.95978236  0.67634015  0.06397545    -0.03400
C1236       C  0.96924561  0.70742883  0.07669890    -0.07900
C1237       C  0.99771821  0.71161542  0.09717559     0.05700
C1238       C  0.02051666  0.68440339  0.09755355    -0.02900
Br1239     Br  0.06713262  0.68570070  0.10851703    -0.02600
H1240       H  0.02838569  0.63331626  0.08624338     0.09600
H1241       H  0.95196676  0.72773936  0.07400498     0.07600
Br1242     Br  0.91687844  0.67318908  0.04341617    -0.03000
C1243       C  0.02875642  0.81331632  0.05840818    -0.09700
C1244       C  0.00746832  0.83942548  0.06676009     0.06500
C1245       C  0.97807482  0.83116627  0.08431470    -0.03400
C1246       C  0.97319236  0.79893961  0.09679911    -0.07900
C1247       C  0.99827793  0.77449549  0.09522861     0.05700
C1248       C  0.02397549  0.78115030  0.07133430    -0.02900
Br1249     Br  0.05463983  0.74893164  0.05514581    -0.02600
H1250       H  0.04999569  0.81808986  0.04241887     0.09600
H1251       H  0.94967102  0.79392423  0.10864324     0.07600
Br1252     Br  0.94279592  0.86224966  0.09160693    -0.03000
C1253       C  0.24960150  0.68253131  0.53405517    -0.09700
C1254       C  0.24095993  0.64868109  0.53012159     0.06500
C1255       C  0.23078300  0.63131041  0.55977896    -0.03400
C1256       C  0.22963868  0.64724546  0.59047827    -0.07900
C1257       C  0.23703174  0.68076387  0.59351590     0.05700
C1258       C  0.24713456  0.69853075  0.56501663    -0.02900
Br1259     Br  0.25906713  0.74449572  0.56726150    -0.02600
H1260       H  0.25798805  0.69729227  0.51333260     0.09600
H1261       H  0.22168238  0.63342451  0.61227550     0.07600
Br1262     Br  0.21473162  0.58630915  0.56175155    -0.03000
C1263       C  0.33433990  0.60289777  0.50792613    -0.09700
C1264       C  0.33299062  0.56856290  0.51107874     0.06500
C1265       C  0.30129041  0.55322265  0.51133534    -0.03400
C1266       C  0.27209364  0.57241131  0.50775576    -0.07900
C1267       C  0.27339275  0.60722694  0.50255869     0.05700
C1268       C  0.30598346  0.62197790  0.50338807    -0.02900
Br1269     Br  0.31657104  0.66789299  0.49528903    -0.02600
H1270       H  0.35827679  0.61532003  0.50807260     0.09600
H1271       H  0.24868208  0.55941246  0.50798073     0.07600
Br1272     Br  0.29631245  0.50601370  0.51336979    -0.03000
C1273       C  0.14469213  0.62170285  0.49207263    -0.09700
C1274       C  0.13995524  0.59206154  0.47521465     0.06500
C1275       C  0.16855793  0.57478975  0.46427537    -0.03400
C1276       C  0.20055562  0.58673207  0.47186135    -0.07900
C1277       C  0.20593180  0.61585750  0.49046860     0.05700
C1278       C  0.17629209  0.63425293  0.49892402    -0.02900
Br1279     Br  0.17291460  0.67745386  0.51911997    -0.02600
H1280       H  0.12319189  0.63584020  0.49978992     0.09600
H1281       H  0.22114654  0.57283899  0.46258621     0.07600
Br1282     Br  0.16670241  0.53453049  0.43885828    -0.03000
C1283       C  0.23665258  0.68008529  0.45517305    -0.09700
C1284       C  0.24944120  0.64813147  0.46200545     0.06500
C1285       C  0.26522649  0.63176498  0.43418841    -0.03400
C1286       C  0.27135284  0.64854565  0.40445001    -0.07900
C1287       C  0.26080004  0.68073576  0.39938972     0.05700
C1288       C  0.24243989  0.69636503  0.42460577    -0.02900
Br1289     Br  0.22236802  0.73869365  0.41719600    -0.02600
H1290       H  0.22134285  0.69255180  0.47308621     0.09600
H1291       H  0.28380440  0.63581345  0.38424886     0.07600
Br1292     Br  0.27834969  0.58601730  0.43046668    -0.03000
C1293       C  0.62161660  0.47790370  0.18864266    -0.09700
C1294       C  0.59992865  0.48064109  0.21657168     0.06500
C1295       C  0.56486036  0.47836851  0.20960275    -0.03400
C1296       C  0.55396267  0.47627934  0.17627257    -0.07900
C1297       C  0.57638755  0.47650348  0.14953377     0.05700
C1298       C  0.61036928  0.47609486  0.15605727    -0.02900
Br1299     Br  0.64273346  0.47374608  0.12096548    -0.02600
H1300       H  0.64826798  0.47894064  0.19204312     0.09600
H1301       H  0.52756130  0.47628132  0.17101772     0.07600
Br1302     Br  0.52854289  0.48079250  0.24073429    -0.03000
C1303       C  0.57652299  0.51725340  0.28645914    -0.09700
C1304       C  0.60055104  0.49196214  0.28408547     0.06500
C1305       C  0.61186753  0.47860708  0.31541376    -0.03400
C1306       C  0.59521252  0.48576354  0.34473351    -0.07900
C1307       C  0.56929990  0.50847580  0.34613948     0.05700
C1308       C  0.56041565  0.52507463  0.31648306    -0.02900
Br1309     Br  0.52741861  0.55921719  0.31463447    -0.02600
H1310       H  0.57003159  0.53133039  0.26455646     0.09600
H1311       H  0.60380525  0.47394100  0.36736077     0.07600
Br1312     Br  0.65226000  0.45463700  0.32536673    -0.03000
C1313       C  0.63656920  0.39243821  0.26296899    -0.09700
C1314       C  0.67093521  0.39033501  0.26116197     0.06500
C1315       C  0.68930391  0.41924522  0.25319343    -0.03400
C1316       C  0.67286994  0.44975289  0.24823232    -0.07900
C1317       C  0.63805595  0.45265490  0.25286017     0.05700
C1318       C  0.62016661  0.42243957  0.25931336    -0.02900
Br1319     Br  0.57342149  0.41847431  0.26735316    -0.02600
H1320       H  0.62214381  0.37034799  0.26867759     0.09600
H1321       H  0.68760354  0.47108612  0.24112917     0.07600
Br1322     Br  0.73658064  0.41813632  0.24757037    -0.03000
C1323       C  0.75755012  0.32259739  0.46629007    -0.09700
C1324       C  0.75363714  0.35750546  0.46544056     0.06500
C1325       C  0.75689367  0.37271929  0.43314017    -0.03400
C1326       C  0.76148077  0.35397032  0.40448181    -0.07900
C1327       C  0.76295605  0.31959761  0.40535468     0.05700
C1328       C  0.76127207  0.30377768  0.43681030    -0.02900
Br1329     Br  0.76123193  0.25645279  0.44095573    -0.02600
H1330       H  0.75765672  0.30934939  0.48953525     0.09600
H1331       H  0.76330007  0.36665789  0.38074076     0.07600
Br1332     Br  0.75283249  0.41911376  0.42363182    -0.03000
C1333       C  0.68900420  0.38268634  0.46708116    -0.09700
C1334       C  0.70998900  0.39436913  0.49346152     0.06500
C1335       C  0.69321742  0.41494942  0.51725020    -0.03400
C1336       C  0.66032605  0.42575443  0.51183579    -0.07900
C1337       C  0.64199362  0.41577500  0.48408627     0.05700
C1338       C  0.65645885  0.39355365  0.46201429    -0.02900
Br1339     Br  0.63216021  0.37626298  0.42479472    -0.02600
H1340       H  0.69658522  0.36385938  0.44984264     0.09600
H1341       H  0.64869640  0.44197744  0.52980526     0.07600
Br1342     Br  0.71067396  0.42909117  0.55909972    -0.03000
C1343       C  0.80872711  0.38442295  0.49750079    -0.09700
C1344       C  0.77839447  0.40248068  0.49660687     0.06500
C1345       C  0.78127176  0.43783978  0.49646709    -0.03400
C1346       C  0.81278766  0.45271456  0.50158754    -0.07900
C1347       C  0.84178923  0.43360862  0.50547018     0.05700
C1348       C  0.83958647  0.39921909  0.50106437    -0.02900
Br1349     Br  0.87703575  0.36969534  0.50279700    -0.02600
H1350       H  0.80835957  0.35760758  0.49739370     0.09600
H1351       H  0.81458528  0.47944271  0.50312954     0.07600
Br1352     Br  0.74522619  0.46833924  0.49110063    -0.03000
C1353       C  0.32384082  0.53992293  0.74109923    -0.09700
C1354       C  0.35893084  0.53805622  0.73838553     0.06500
C1355       C  0.37582602  0.56748512  0.72724297    -0.03400
C1356       C  0.35879450  0.59705241  0.72352630    -0.07900
C1357       C  0.32461236  0.59885496  0.72838677     0.05700
C1358       C  0.30680233  0.56983005  0.73631908    -0.02900
Br1359     Br  0.25949612  0.56980246  0.74218058    -0.02600
H1360       H  0.30903768  0.51822195  0.74649946     0.09600
H1361       H  0.37257937  0.61916205  0.71653265     0.07600
Br1362     Br  0.42275882  0.57105276  0.71761122    -0.03000
C1363       C  0.35228030  0.44772808  0.72333476    -0.09700
C1364       C  0.35394763  0.47346532  0.74756307     0.06500
C1365       C  0.33637462  0.46698129  0.77793576    -0.03400
C1366       C  0.32232521  0.43538678  0.78423617    -0.07900
C1367       C  0.32412189  0.40986208  0.76056830     0.05700
C1368       C  0.33716857  0.41737477  0.72910445    -0.02900
Br1369     Br  0.33528290  0.38743859  0.69179656    -0.02600
H1370       H  0.36445407  0.44883020  0.69972452     0.09600
H1371       H  0.31087340  0.43047596  0.80816470     0.07600
Br1372     Br  0.33196302  0.49891974  0.81305087    -0.03000
C1373       C  0.40657378  0.53651907  0.79140422    -0.09700
C1374       C  0.40163974  0.50616330  0.77387532     0.06500
C1375       C  0.41383644  0.47724816  0.79052010    -0.03400
C1376       C  0.42481795  0.47902264  0.82367236    -0.07900
C1377       C  0.42682027  0.50919023  0.84096993     0.05700
C1378       C  0.42025326  0.53834765  0.82326213    -0.02900
Br1379     Br  0.42722534  0.58189314  0.84137596    -0.02600
H1380       H  0.39854481  0.55994819  0.78203344     0.09600
H1381       H  0.43177872  0.45629155  0.83618920     0.07600
Br1382     Br  0.41613784  0.43375689  0.77105123    -0.03000
C1383       C  0.37403940  0.50447039  0.67939988    -0.09700
C1384       C  0.39521252  0.50000912  0.70744065     0.06500
C1385       C  0.42796633  0.48854847  0.70069536    -0.03400
C1386       C  0.43591594  0.47697306  0.66865066    -0.07900
C1387       C  0.41311518  0.47872015  0.64219379     0.05700
C1388       C  0.38241271  0.49410364  0.64768547    -0.02900
Br1389     Br  0.34885849  0.49964263  0.61404425    -0.02600
H1390       H  0.34886731  0.51323845  0.68256653     0.09600
H1391       H  0.46078887  0.46786180  0.66397771     0.07600
Br1392     Br  0.46500584  0.49212093  0.73055282    -0.03000
C1393       C  0.71989358  0.13214658  0.05279984    -0.09700
C1394       C  0.74953562  0.14039036  0.03443507     0.06500
C1395       C  0.77173006  0.16264643  0.05096852    -0.03400
C1396       C  0.76489508  0.17372809  0.08365523    -0.07900
C1397       C  0.73602873  0.16385792  0.10083602     0.05700
C1398       C  0.71330966  0.14344541  0.08480767    -0.02900
Br1399     Br  0.67430357  0.12690621  0.10726535    -0.02600
H1400       H  0.70209110  0.11399522  0.04461221     0.09600
H1401       H  0.78249843  0.18996821  0.09592776     0.07600
Br1402     Br  0.81308069  0.17762777  0.03228360    -0.03000
C1403       C  0.69130896  0.04962125  0.98901260    -0.09700
C1404       C  0.66401873  0.06977521  0.98123414     0.06500
C1405       C  0.66882273  0.10377397  0.97737409    -0.03400
C1406       C  0.69985743  0.11730311  0.98300790    -0.07900
C1407       C  0.72788037  0.09820170  0.99312604     0.05700
C1408       C  0.72311302  0.06312193  0.99497305    -0.02900
Br1409     Br  0.75683613  0.03064562  0.00336085    -0.02600
H1410       H  0.68763397  0.02310236  0.99121807     0.09600
H1411       H  0.70159864  0.14401641  0.98140172     0.07600
Br1412     Br  0.63398598  0.13350260  0.96418656    -0.03000
C1413       C  0.83310385  0.07261745  0.04636706    -0.09700
C1414       C  0.85991805  0.07929431  0.02478102     0.06500
C1415       C  0.85367391  0.09801651  0.99602617    -0.03400
C1416       C  0.82197616  0.10970652  0.98980101    -0.07900
C1417       C  0.79364153  0.10244053  0.01006093     0.05700
C1418       C  0.80068605  0.08419598  0.03985790    -0.02900
Br1419     Br  0.76882102  0.07432189  0.07429091    -0.02600
H1420       H  0.83743068  0.05850270  0.06888572     0.09600
H1421       H  0.82117180  0.12621218  0.96887908     0.07600
Br1422     Br  0.88649298  0.10888324  0.96251678    -0.03000
C1423       C  0.16207151  0.95749217  0.79076603    -0.09700
C1424       C  0.16174750  0.97459954  0.75981920     0.06500
C1425       C  0.18507116  0.96276447  0.73555521    -0.03400
C1426       C  0.20032882  0.93166122  0.73973298    -0.07900
C1427       C  0.19418359  0.91221135  0.76797038     0.05700
C1428       C  0.17653789  0.92623771  0.79437820    -0.02900
Br1429     Br  0.16901731  0.90233580  0.83498531    -0.02600
H1430       H  0.15000279  0.96731036  0.81253288     0.09600
H1431       H  0.21569605  0.92180350  0.71992187     0.07600
Br1432     Br  0.19492359  0.98403009  0.69387351    -0.03000
C1433       C  0.19608858  0.08139890  0.76271895    -0.09700
C1434       C  0.19226200  0.09727423  0.73196135     0.06500
C1435       C  0.17563599  0.08073798  0.70645357    -0.03400
C1436       C  0.15970357  0.05064532  0.71308260    -0.07900
C1437       C  0.15987948  0.03546939  0.74518454     0.05700
C1438       C  0.18154166  0.05029929  0.76907299    -0.02900
Br1439     Br  0.19091339  0.03153553  0.81200108    -0.02600
H1440       H  0.21023699  0.09351339  0.78213957     0.09600
H1441       H  0.14757173  0.03919771  0.69214155     0.07600
Br1442     Br  0.17257360  0.09904917  0.66240336    -0.03000
C1443       C  0.09088082  0.02482218  0.71529933    -0.09700
C1444       C  0.11240248  0.99822483  0.72353052     0.06500
C1445       C  0.11126473  0.97036835  0.70136078    -0.03400
C1446       C  0.09652517  0.97360240  0.66984356    -0.07900
C1447       C  0.08067402  0.00274712  0.65993817     0.05700
C1448       C  0.07588657  0.02754928  0.68392549    -0.02900
Br1449     Br  0.04874190  0.06552064  0.67534807    -0.02600
H1450       H  0.08844516  0.04555661  0.73211238     0.09600
H1451       H  0.09761358  0.95299857  0.65265464     0.07600
Br1452     Br  0.12392465  0.92542572  0.71094414    -0.03000
C1453       C  0.11151459  0.04409982  0.79900841    -0.09700
C1454       C  0.11398939  0.01183283  0.78487316     0.06500
C1455       C  0.09334676  0.98727446  0.80032803    -0.03400
C1456       C  0.07949122  0.99257993  0.83198431    -0.07900
C1457       C  0.08149531  0.02332145  0.84776408     0.05700
C1458       C  0.09567285  0.04987569  0.82982411    -0.02900
Br1459     Br  0.09493304  0.09430087  0.84663410    -0.02600
H1460       H  0.12192541  0.06541198  0.78642345     0.09600
H1461       H  0.06645011  0.97242089  0.84430350     0.07600
Br1462     Br  0.08348927  0.94489807  0.78154491    -0.03000
C1463       C  0.46442894  0.75488776  0.32372801    -0.09700
C1464       C  0.46301053  0.75130545  0.35878200     0.06500
C1465       C  0.43086698  0.75534885  0.37395902    -0.03400
C1466       C  0.40286654  0.76167982  0.35515412    -0.07900
C1467       C  0.40410387  0.76414612  0.32072188     0.05700
C1468       C  0.43541083  0.76115179  0.30479660    -0.02900
Br1469     Br  0.43986116  0.76411320  0.25740688    -0.02600
H1470       H  0.48795176  0.75337678  0.31082779     0.09600
H1471       H  0.37926869  0.76427074  0.36796401     0.07600
Br1472     Br  0.42052067  0.74990541  0.42038301    -0.03000
C1473       C  0.46275956  0.68885811  0.38696389    -0.09700
C1474       C  0.48827860  0.71042469  0.39960589     0.06500
C1475       C  0.50986536  0.69511510  0.42345323    -0.03400
C1476       C  0.50308620  0.66302781  0.43575711    -0.07900
C1477       C  0.47601792  0.64442722  0.42444810     0.05700
C1478       C  0.45585733  0.65759214  0.39984245    -0.02900
Br1479     Br  0.41917194  0.63303474  0.38158544    -0.02600
H1480       H  0.44768484  0.69490790  0.36576191     0.09600
H1481       H  0.51969591  0.65203626  0.45381186     0.07600
Br1482     Br  0.55126812  0.71262665  0.43897840    -0.03000
C1483       C  0.49751832  0.80695426  0.37770752    -0.09700
C1484       C  0.49383621  0.77953787  0.40006713     0.06500
C1485       C  0.49031210  0.78727691  0.43461187    -0.03400
C1486       C  0.49118062  0.82075936  0.44473598    -0.07900
C1487       C  0.49477708  0.84666195  0.42152714     0.05700
C1488       C  0.49726555  0.83951130  0.38785154    -0.02900
Br1489     Br  0.50208202  0.87338385  0.35439431    -0.02600
H1490       H  0.50141294  0.80287618  0.35139370     0.09600
H1491       H  0.48912392  0.82667356  0.47092628     0.07600
Br1492     Br  0.48666212  0.75573509  0.47022873    -0.03000
C1493       C  0.78381331  0.57596691  0.97131299    -0.09700
C1494       C  0.78158931  0.59428675  0.00150136     0.06500
C1495       C  0.81200851  0.59589101  0.02069817    -0.03400
C1496       C  0.84059151  0.57988504  0.00988699    -0.07900
C1497       C  0.84320000  0.56461780  0.97895190     0.05700
C1498       C  0.81385931  0.56158414  0.95993169    -0.02900
Br1499     Br  0.81323474  0.53953344  0.91778097    -0.02600
H1500       H  0.76215684  0.57414056  0.95554939     0.09600
H1501       H  0.86239265  0.58130748  0.02557176     0.07600
Br1502     Br  0.82429196  0.62353892  0.05823820    -0.03000
C1503       C  0.68752327  0.62067875  0.01756039    -0.09700
C1504       C  0.71455513  0.59854868  0.01228155     0.06500
C1505       C  0.70667967  0.56406583  0.01313035    -0.03400
C1506       C  0.67305079  0.55380856  0.01484451    -0.07900
C1507       C  0.64696855  0.57686976  0.01617517     0.05700
C1508       C  0.65461534  0.61047862  0.01836128    -0.02900
Br1509     Br  0.62089892  0.64384767  0.02189642    -0.02600
H1510       H  0.69202185  0.64733648  0.01858025     0.09600
H1511       H  0.66715048  0.52756149  0.01453984     0.07600
Br1512     Br  0.73871927  0.52915471  0.01529762    -0.03000
C1513       C  0.75190516  0.61087503  0.06987897    -0.09700
C1514       C  0.75212282  0.63319225  0.04232458     0.06500
C1515       C  0.75108685  0.66769870  0.04989206    -0.03400
C1516       C  0.75490180  0.67817981  0.08307547    -0.07900
C1517       C  0.75678101  0.65535017  0.10940598     0.05700
C1518       C  0.75413854  0.62152348  0.10262807    -0.02900
Br1519     Br  0.75561468  0.58849483  0.13711452    -0.02600
H1520       H  0.75135234  0.58443208  0.06568075     0.09600
H1521       H  0.75436959  0.70440747  0.08863721     0.07600
Br1522     Br  0.73902030  0.70215999  0.01923072    -0.03000
C1523       C  0.86470163  0.89602542  0.25722667    -0.09700
C1524       C  0.83033377  0.89292770  0.25880610     0.06500
C1525       C  0.81096931  0.92188408  0.25914795    -0.03400
C1526       C  0.82640131  0.95332689  0.25767884    -0.07900
C1527       C  0.86150507  0.95707989  0.25799493     0.05700
C1528       C  0.88036258  0.92685747  0.25707633    -0.02900
Br1529     Br  0.92814681  0.92379801  0.25786372    -0.02600
H1530       H  0.87979906  0.87384955  0.25672282     0.09600
H1531       H  0.81040390  0.97459948  0.25595511     0.07600
Br1532     Br  0.76336887  0.91969668  0.25983359    -0.03000
C1533       C  0.59036779  0.75447303  0.36339229    -0.09700
C1534       C  0.59574479  0.73165138  0.33824057     0.06500
C1535       C  0.56803458  0.71363888  0.32630173    -0.03400
C1536       C  0.53596540  0.71895135  0.34006353    -0.07900
C1537       C  0.53002912  0.74291134  0.36516880     0.05700
C1538       C  0.55928753  0.76060373  0.37685156    -0.02900
Br1539     Br  0.56525461  0.79128672  0.41363893    -0.02600
H1540       H  0.61148164  0.76778877  0.37356030     0.09600
H1541       H  0.51545141  0.70402108  0.33113187     0.07600
Br1542     Br  0.57214288  0.68263334  0.29054648    -0.03000
C1543       C  0.64478546  0.57861137  0.22878991    -0.09700
C1544       C  0.66982871  0.58464251  0.25160860     0.06500
C1545       C  0.68062595  0.55832941  0.27178253    -0.03400
C1546       C  0.66595848  0.52662051  0.26886267    -0.07900
C1547       C  0.63961221  0.51985264  0.24637278     0.05700
C1548       C  0.62867563  0.54794125  0.22676421    -0.02900
Br1549     Br  0.58949801  0.55206196  0.19946648    -0.02600
H1550       H  0.63599689  0.59912015  0.21374858     0.09600
H1551       H  0.67443942  0.50756477  0.28554349     0.07600
Br1552     Br  0.71530745  0.56465175  0.30372132    -0.03000
C1553       C  0.92438079  0.77105857  0.17824440    -0.09700
C1554       C  0.90173384  0.74458168  0.17433168     0.06500
C1555       C  0.91421349  0.71523537  0.15990817    -0.03400
C1556       C  0.94541026  0.71506019  0.14486196    -0.07900
C1557       C  0.96663728  0.74317420  0.14355162     0.05700
C1558       C  0.95701780  0.76977025  0.16490348    -0.02900
Br1559     Br  0.98618895  0.80584493  0.17610454    -0.02600
H1560       H  0.91680096  0.79289125  0.19179027     0.09600
H1561       H  0.95312118  0.69153939  0.13497043     0.07600
Br1562     Br  0.89179886  0.67290387  0.16075480    -0.03000
C1563       C  0.81056455  0.88175005  0.50567509    -0.09700
C1564       C  0.78039699  0.90003256  0.50620735     0.06500
C1565       C  0.78336215  0.93477814  0.51232056    -0.03400
C1566       C  0.81511258  0.95002098  0.51153765    -0.07900
C1567       C  0.84424132  0.93117622  0.50818811     0.05700
C1568       C  0.84164900  0.89669347  0.50699752    -0.02900
Br1569     Br  0.88000622  0.86856521  0.50489295    -0.02600
H1570       H  0.80997884  0.85518163  0.50269396     0.09600
H1571       H  0.81719720  0.97650775  0.51514736     0.07600
Br1572     Br  0.74771160  0.96261925  0.52713372    -0.03000
C1573       C  0.68805323  0.88133270  0.52744411    -0.09700
C1574       C  0.71253398  0.89462204  0.50506859     0.06500
C1575       C  0.70016061  0.91769718  0.48104784    -0.03400
C1576       C  0.66641495  0.92678289  0.48085935    -0.07900
C1577       C  0.64385981  0.91406004  0.50421774     0.05700
C1578       C  0.65512520  0.89172424  0.52805119    -0.02900
Br1579     Br  0.62574647  0.87258427  0.56073449    -0.02600
H1580       H  0.69320218  0.86116563  0.54423568     0.09600
H1581       H  0.65768306  0.94424267  0.46234943     0.07600
Br1582     Br  0.72626844  0.93836922  0.44694755    -0.03000
C1583       C  0.72261622  0.83615613  0.46222426    -0.09700
C1584       C  0.74823545  0.85973351  0.46859582     0.06500
C1585       C  0.76822109  0.86884925  0.43993280    -0.03400
C1586       C  0.76297280  0.85392362  0.40911610    -0.07900
C1587       C  0.73796638  0.83053884  0.40326493     0.05700
C1588       C  0.71746160  0.82166857  0.43053574    -0.02900
Br1589     Br  0.68214494  0.78988450  0.42659705    -0.02600
H1590       H  0.70605953  0.82904844  0.48227776     0.09600
H1591       H  0.77863784  0.86181943  0.38861249     0.07600
Br1592     Br  0.80107846  0.90386964  0.43441312    -0.03000
C1593       C  0.89206008  0.54418852  0.70157637    -0.09700
C1594       C  0.89550100  0.51223125  0.71624199     0.06500
C1595       C  0.91795675  0.49059303  0.69937088    -0.03400
C1596       C  0.92790994  0.49747801  0.66649445    -0.07900
C1597       C  0.91895453  0.52704896  0.65066217     0.05700
C1598       C  0.90282180  0.55134618  0.66927527    -0.02900
Br1599     Br  0.89391014  0.59450631  0.65132127    -0.02600
H1600       H  0.88136589  0.56457223  0.71497261     0.09600
H1601       H  0.94308181  0.47971362  0.65326947     0.07600
Br1602     Br  0.93577885  0.45073420  0.71828217    -0.03000
C1603       C  0.90309352  0.46176322  0.79095149    -0.09700
C1604       C  0.90140053  0.49361906  0.77593956     0.06500
C1605       C  0.92460696  0.51781510  0.78786511    -0.03400
C1606       C  0.94198534  0.51206242  0.81753370    -0.07900
C1607       C  0.93807385  0.48230951  0.83497477     0.05700
C1608       C  0.92068240  0.45623184  0.82024153    -0.02900
Br1609     Br  0.91840764  0.41315560  0.84047395    -0.02600
H1610       H  0.89062868  0.44054644  0.78059069     0.09600
H1611       H  0.95687158  0.53177548  0.82821521     0.07600
Br1612     Br  0.93074541  0.56130610  0.76922221    -0.03000
C1613       C  0.82474145  0.42039940  0.76253237    -0.09700
C1614       C  0.83205842  0.40258512  0.73372531     0.06500
C1615       C  0.84300611  0.42054524  0.70563973    -0.03400
C1616       C  0.85289520  0.45391209  0.70918623    -0.07900
C1617       C  0.85244935  0.47008888  0.74061502     0.05700
C1618       C  0.83229243  0.45412623  0.76522589    -0.02900
Br1619     Br  0.81271299  0.47512330  0.80288179    -0.02600
H1620       H  0.81233056  0.40800646  0.78309341     0.09600
H1621       H  0.86159124  0.46650367  0.68709064     0.07600
Br1622     Br  0.84571131  0.40087074  0.66233396    -0.03000
C1623       C  0.60040689  0.22652040  0.64067597    -0.09700
C1624       C  0.60558102  0.23481517  0.67371452     0.06500
C1625       C  0.57839318  0.24474712  0.69332284    -0.03400
C1626       C  0.54633470  0.24607293  0.67945978    -0.07900
C1627       C  0.54077862  0.23928239  0.64535804     0.05700
C1628       C  0.56914620  0.22899921  0.62620237    -0.02900
Br1629     Br  0.56975866  0.22153075  0.57889654    -0.02600
H1630       H  0.62148269  0.21964062  0.62536342     0.09600
H1631       H  0.52600274  0.25275355  0.69561287     0.07600
Br1632     Br  0.58422460  0.25834276  0.73859686    -0.03000
C1633       C  0.76434081  0.35676990  0.59185779    -0.09700
C1634       C  0.74479310  0.32890996  0.59692462     0.06500
C1635       C  0.72625672  0.31674962  0.56980512    -0.03400
C1636       C  0.72673951  0.33372016  0.53882990    -0.07900
C1637       C  0.74758014  0.36164070  0.53277519     0.05700
C1638       C  0.76616601  0.37322353  0.56158191    -0.02900
Br1639     Br  0.79167052  0.41340961  0.56914078    -0.02600
H1640       H  0.77802878  0.36681454  0.61278244     0.09600
H1641       H  0.71098449  0.32457044  0.51906834     0.07600
Br1642     Br  0.70261002  0.27556228  0.57284306    -0.03000
C1643       C  0.91350332  0.25870487  0.86607399    -0.09700
C1644       C  0.90988712  0.26342867  0.83209952     0.06500
C1645       C  0.93871611  0.26571751  0.81226178    -0.03400
C1646       C  0.97048722  0.26208072  0.82672150    -0.07900
C1647       C  0.97461704  0.25528033  0.86115764     0.05700
C1648       C  0.94452002  0.25499407  0.88077680    -0.02900
Br1649     Br  0.94037988  0.24711938  0.92792730    -0.02600
H1650       H  0.89141599  0.25713783  0.88154192     0.09600
H1651       H  0.99146190  0.26410284  0.81030903     0.07600
Br1652     Br  0.93589604  0.27120948  0.76499148    -0.03000
C1653       C  0.76005111  0.17442346  0.96516346    -0.09700
C1654       C  0.76352080  0.13963080  0.96812879     0.06500
C1655       C  0.76857530  0.12167882  0.93761622    -0.03400
C1656       C  0.77091551  0.13778186  0.90723760    -0.07900
C1657       C  0.76773193  0.17176537  0.90453577     0.05700
C1658       C  0.76194570  0.19040721  0.93369729    -0.02900
Br1659     Br  0.75376103  0.23702932  0.93121467    -0.02600
H1660       H  0.75464451  0.18914315  0.98691974     0.09600
H1661       H  0.77481565  0.12324393  0.88490677     0.07600
Br1662     Br  0.77449357  0.07465619  0.93352566    -0.03000
C1663       C  0.60674660  0.01693478  0.80531175    -0.09700
C1664       C  0.60695542  0.99247789  0.77978794     0.06500
C1665       C  0.59290960  0.96099024  0.78915574    -0.03400
C1666       C  0.58173740  0.95512618  0.82202086    -0.07900
C1667       C  0.58386159  0.97957764  0.84674957     0.05700
C1668       C  0.59548436  0.01106293  0.83749753    -0.02900
Br1669     Br  0.59645145  0.04850332  0.86716553    -0.02600
H1670       H  0.61711871  0.04102171  0.80226811     0.09600
H1671       H  0.57178186  0.93099277  0.82841563     0.07600
Br1672     Br  0.58800414  0.92389305  0.75951903    -0.03000
C1673       C  0.62792643  0.01167338  0.68492665    -0.09700
C1674       C  0.60848330  0.00176773  0.71302740     0.06500
C1675       C  0.57378849  0.99621976  0.70691889    -0.03400
C1676       C  0.56147355  0.99712778  0.67406943    -0.07900
C1677       C  0.58206077  0.00466591  0.64688093     0.05700
C1678       C  0.61528430  0.01279103  0.65267630    -0.02900
Br1679     Br  0.64472804  0.02490117  0.61696546    -0.02600
H1680       H  0.65418681  0.01682971  0.68783628     0.09600
H1681       H  0.53540446  0.99206774  0.66966567     0.07600
Br1682     Br  0.53967635  0.99117515  0.74014012    -0.03000
C1683       C  0.64496292  0.09365196  0.75272454    -0.09700
C1684       C  0.67880309  0.09596581  0.75925184     0.06500
C1685       C  0.69765854  0.06656795  0.75952102    -0.03400
C1686       C  0.68196010  0.03556770  0.75416707    -0.07900
C1687       C  0.64704854  0.03280722  0.74981254     0.05700
C1688       C  0.62912071  0.06341806  0.74785584    -0.02900
Br1689     Br  0.58180303  0.06767093  0.74288309    -0.02600
H1690       H  0.63032446  0.11611580  0.75153533     0.09600
H1691       H  0.69743435  0.01381510  0.75356639     0.07600
Br1692     Br  0.74490830  0.06759526  0.76530196    -0.03000
C1693       C  0.82868501  0.54244102  0.73600101    -0.09700
C1694       C  0.85116570  0.53008135  0.75993799     0.06500
C1695       C  0.85177963  0.54748659  0.79119841    -0.03400
C1696       C  0.83924553  0.57974153  0.79308114    -0.07900
C1697       C  0.82506055  0.59490942  0.76541138     0.05700
C1698       C  0.81786515  0.57535656  0.73734042    -0.02900
Br1699     Br  0.79624417  0.59320798  0.69877437    -0.02600
H1700       H  0.82448424  0.52869020  0.71328091     0.09600
H1701       H  0.84181028  0.59357833  0.81600664     0.07600
Br1702     Br  0.86464961  0.53026155  0.83411131    -0.03000
C1703       C  0.75041570  0.87635739  0.56632376    -0.09700
C1704       C  0.75262666  0.85726647  0.53669173     0.06500
C1705       C  0.76073919  0.82309035  0.54095457    -0.03400
C1706       C  0.76372196  0.80955286  0.57343572    -0.07900
C1707       C  0.75898826  0.82902300  0.60206738     0.05700
C1708       C  0.75273309  0.86285347  0.59799518    -0.02900
Br1709     Br  0.74771805  0.89264005  0.63494757    -0.02600
H1710       H  0.74546040  0.90256398  0.56479769     0.09600
H1711       H  0.76935595  0.78350371  0.57635301     0.07600
Br1712     Br  0.77129953  0.79338101  0.50539081    -0.03000
C1713       C  0.59777101  0.76806711  0.87025930    -0.09700
C1714       C  0.60420100  0.76326086  0.83677351     0.06500
C1715       C  0.57771267  0.75703682  0.81487176    -0.03400
C1716       C  0.54525268  0.75307101  0.82728388    -0.07900
C1717       C  0.53829220  0.75649311  0.86155868     0.05700
C1718       C  0.56569630  0.76556532  0.88284328    -0.02900
Br1719     Br  0.56392417  0.76997103  0.93063842    -0.02600
H1720       H  0.61826150  0.77282639  0.88708658     0.09600
H1721       H  0.52553063  0.74795741  0.80983464     0.07600
Br1722     Br  0.58498098  0.75345273  0.76791062    -0.03000
C1723       C  0.68222246  0.92174318  0.77170673    -0.09700
C1724       C  0.67864802  0.90118361  0.74384570     0.06500
C1725       C  0.66485411  0.91466800  0.71489721    -0.03400
C1726       C  0.65195631  0.94670150  0.71526232    -0.07900
C1727       C  0.65227706  0.96737885  0.74411511     0.05700
C1728       C  0.67023901  0.95445083  0.77198176    -0.02900
Br1729     Br  0.67749918  0.97788468  0.81295319    -0.02600
H1730       H  0.69393882  0.91201042  0.79387129     0.09600
H1731       H  0.63895055  0.95303663  0.69292207     0.07600
Br1732     Br  0.65826729  0.88921259  0.67499591    -0.03000
C1733       C  0.77208432  0.67271018  0.93060702    -0.09700
C1734       C  0.74420171  0.66879167  0.91012999     0.06500
C1735       C  0.71705526  0.65082234  0.92231615    -0.03400
C1736       C  0.71939102  0.63462743  0.95281743    -0.07900
C1737       C  0.74688941  0.63852219  0.97507152     0.05700
C1738       C  0.77348378  0.65877506  0.96271685    -0.02900
Br1739     Br  0.81318015  0.66895266  0.98686568    -0.02600
H1740       H  0.79328281  0.68689504  0.92138197     0.09600
H1741       H  0.69925370  0.61740160  0.95732696     0.07600
Br1742     Br  0.67691214  0.64464109  0.89714843    -0.03000
C1743       C  0.92602922  0.71678186  0.67570880    -0.09700
C1744       C  0.90351601  0.74287522  0.67977568     0.06500
C1745       C  0.91574279  0.77529094  0.67690778    -0.03400
C1746       C  0.94735191  0.78111546  0.66420905    -0.07900
C1747       C  0.97030659  0.75553678  0.65639304     0.05700
C1748       C  0.95922370  0.72270712  0.66532024    -0.02900
Br1749     Br  0.98693496  0.68409706  0.66415096    -0.02600
H1750       H  0.91762429  0.69157446  0.67986846     0.09600
H1751       H  0.95205683  0.80675140  0.65957249     0.07600
Br1752     Br  0.89066975  0.81356591  0.69059861    -0.03000
loop_ 
_geom_bond_atom_site_label_1 
_geom_bond_atom_site_label_2 
_geom_bond_distance 
_geom_bond_site_symmetry_2 
_ccdc_geom_bond_type 
O1           Mg3   2.138       .  S
O1           Mg9   2.138       .  S
O1           C36   1.238       .  S
C2           O15   1.240       .  S
C2           O39   1.275       .  A
C2           H41   1.085       .  S
Mg3          O32   2.138       .  S
Mg3          O47   2.312       .  S
Mg3          O43   2.270       .  S
Mg3          O14   2.297       .  S
O4          Mg46   2.129       .  S
O4          Mg29   2.139       .  S
O4           C25   1.239       .  S
O5           C36   1.272       .  A
O5          Mg29   2.299       .  S
C6            O8   1.272       .  A
C6           O20   1.279       .  A
C6         C1707   1.487       .  S
O7           C35   1.271       .  A
O7           Mg9   2.296       .  S
O8          Mg40   2.250       .  S
Mg9          O15   2.132       .  S
Mg9          O23   2.258       .  S
Mg9          O11   2.337       .  S
C10          O48   1.271       .  A
C10          O16   1.278       .  A
C10        C1744   1.489       .  S
O11          C18   1.280       .  A
H12          C25   1.083       .  S
C13          O27   1.238       .  S
C13          O28   1.272       .  A
C13          H38   1.079       .  S
O14          C37   1.273       .  A
O15         Mg29   2.141       .  S
O16         Mg46   2.359       .  S
C17          O30   1.271       .  A
C17          O22   1.277       .  A
C17        C1697   1.478       .  S
C18          O45   1.273       .  A
C18        C1734   1.481       .  S
Mg19         O26   2.132       .  S
Mg19         O27   2.117       .  S
Mg19         O20   2.362       .  S
Mg19         O21   2.319       .  S
Mg19         O48   2.248       .  S
O21          C25   1.274       .  A
O22         Mg29   2.328       .  S
O23          C42   1.274       .  A
O24          C44   1.276       .  A
O24         Mg40   2.318       .  S
O26         Mg40   2.135       .  S
O26          C37   1.240       .  S
O27         Mg46   2.147       .  S
O28         Mg40   2.305       .  S
Mg29         O45   2.258       .  S
O30         Mg46   2.250       .  S
H31          C36   1.078       .  S
O32         Mg40   2.122       .  S
O32          C35   1.238       .  S
H33          C35   1.083       .  S
H34          C37   1.085       .  S
O39         Mg46   2.311       .  S
C42          O47   1.275       .  A
C42        C1714   1.466       .  S
O43          C44   1.273       .  A
C44        C1724   1.487       .  S
C49        C1664   1.590       .  S
C49        C1674   1.583   1_565  S
C49        C1687   1.584   1_565  S
C49        C1727   1.592       .  S
O50         Mg52   2.146       .  S
O50         Mg58   2.123       .  S
O50          C85   1.240       .  S
C51          O64   1.239       .  S
C51          O88   1.272       .  A
C51          H90   1.084       .  S
Mg52         O81   2.122       .  S
Mg52         O96   2.371       .  S
Mg52         O92   2.256       .  S
Mg52         O63   2.312       .  S
O53         Mg95   2.134       .  S
O53         Mg78   2.112       .  S
O53          C74   1.238       .  S
O54          C85   1.275       .  A
O54         Mg78   2.310       .  S
C55          O57   1.277       .  A
C55          O69   1.277       .  A
C55        C1614   1.489       .  S
O56          C84   1.277       .  A
O56         Mg58   2.325       .  S
O57         Mg89   2.283       .  S
Mg58         O64   2.129       .  S
Mg58         O72   2.251       .  S
Mg58         O60   2.396       .  S
C59          O97   1.275       .  A
C59          O65   1.277       .  A
C59        C1634   1.494       .  S
O60          C67   1.283       .  A
H61          C74   1.079       .  S
C62          O76   1.239       .  S
C62          O77   1.272       .  A
C62          H87   1.082       .  S
O63          C86   1.274       .  A
O64         Mg78   2.122       .  S
O65         Mg95   2.351       .  S
C66          O79   1.272       .  A
C66          O71   1.278       .  A
C66        C1624   1.472       .  S
C67          O94   1.270       .  A
C67        C1684   1.487       .  S
Mg68         O75   2.141       .  S
Mg68         O76   2.139       .  S
Mg68         O69   2.333       .  S
Mg68         O70   2.284       .  S
Mg68         O97   2.239       .  S
O70          C74   1.270       .  A
O71         Mg78   2.338       .  S
O72          C91   1.273       .  A
O73          C93   1.279       .  A
O73         Mg89   2.359       .  S
O75         Mg89   2.131       .  S
O75          C86   1.239       .  S
O76         Mg95   2.137       .  S
O77         Mg89   2.299       .  S
Mg78         O94   2.227       .  S
O79         Mg95   2.250       .  S
H80          C85   1.083       .  S
O81         Mg89   2.161       .  S
O81          C84   1.241       .  S
H82          C84   1.078       .  S
H83          C86   1.086       .  S
O88         Mg95   2.301       .  S
C91          O96   1.280       .  A
C91        C1657   1.482       .  S
O92          C93   1.274       .  A
C93        C1644   1.485       .  S
C98        C1594   1.590       .  S
C98        C1604   1.565       .  S
C98        C1617   1.590       .  S
C98        C1694   1.577       .  S
C99        C1564   1.565       .  S
C99        C1574   1.590       .  S
C99        C1584   1.590       .  S
C99        C1704   1.587       .  S
O100       Mg102   2.144       .  S
O100       Mg108   2.118       .  S
O100        C135   1.240       .  S
C101        O114   1.239       .  S
C101        O138   1.273       .  A
C101        H140   1.083       .  S
Mg102       O131   2.128       .  S
Mg102       O146   2.386       .  S
Mg102       O142   2.263       .  S
Mg102       O113   2.316       .  S
O103       Mg145   2.144       .  S
O103       Mg128   2.116       .  S
O103        C124   1.238       .  S
O104        C135   1.275       .  A
O104       Mg128   2.315       .  S
C105        O107   1.275       .  A
C105        O119   1.282       .  A
C105       C1587   1.513       .  S
O106        C134   1.274       .  A
O106       Mg108   2.308       .  S
O107       Mg139   2.250       .  S
Mg108       O114   2.149       .  S
Mg108       O122   2.254       .  S
Mg108       O110   2.330       .  S
C109        O147   1.277       .  A
C109        O115   1.279       .  A
C109       C1534   1.498       .  S
O110        C117   1.276       .  A
H111        C124   1.083       .  S
C112        O126   1.239       .  S
C112        O127   1.274       .  A
C112        H137   1.082       .  S
O113        C136   1.275       .  A
O114       Mg128   2.135       .  S
O115       Mg145   2.364       .  S
C116        O129   1.276       .  A
C116        O121   1.278       .  A
C116       C1544   1.487       .  S
C117        O144   1.269       .  A
C117       C1517   1.470       .  S
Mg118       O125   2.153       .  S
Mg118       O126   2.135       .  S
Mg118       O119   2.388       .  S
Mg118       O120   2.294       .  S
Mg118       O147   2.238       .  S
O120        C124   1.271       .  A
O121       Mg128   2.332       .  S
O122        C141   1.270       .  A
O123        C143   1.279       .  A
O123       Mg139   2.356       .  S
O125       Mg139   2.119       .  S
O125        C136   1.240       .  S
O126       Mg145   2.158       .  S
O127       Mg139   2.306       .  S
Mg128       O144   2.236       .  S
O129       Mg145   2.297       .  S
H130        C135   1.080       .  S
O131       Mg139   2.143       .  S
O131        C134   1.239       .  S
H132        C134   1.083       .  S
H133        C136   1.082       .  S
O138       Mg145   2.304       .  S
C141        O146   1.282       .  A
C141       C1554   1.508       .  S
O142        C143   1.274       .  A
C143       C1524   1.483       .  S
C148       C1494   1.590       .  S
C148       C1504   1.581       .  S
C148       C1514   1.560       .  S
C148       C1737   1.591   1_554  S
C149       C1464   1.586       .  S
C149       C1474   1.596       .  S
C149       C1484   1.563       .  S
C149       C1537   1.588       .  S
C150       C1424   1.582   1_545  S
C150       C1437   1.584       .  S
C150       C1444   1.583   1_545  S
C150       C1454   1.597       .  S
C151       C1394   1.598       .  S
C151       C1407   1.573   1_554  S
C151       C1417   1.589       .  S
C151       C1654   1.584   1_554  S
C152       C1354   1.573       .  S
C152       C1364   1.592       .  S
C152       C1374   1.588       .  S
C152       C1384   1.571       .  S
C153       C1324   1.597       .  S
C153       C1334   1.602       .  S
C153       C1344   1.567       .  S
C153       C1637   1.596       .  S
C154       C1294   1.573       .  S
C154       C1304   1.566       .  S
C154       C1317   1.572       .  S
C154       C1547   1.589       .  S
C155       C1254   1.569       .  S
C155       C1267   1.580       .  S
C155       C1277   1.578       .  S
C155       C1284   1.578       .  S
C156       C1224   1.578   1_655  S
C156       C1237   1.583       .  S
C156       C1247   1.595       .  S
C156       C1557   1.597       .  S
O157       Mg159   2.113       .  S
O157       Mg165   2.147       .  S
O157        C192   1.237       .  S
C158        O171   1.239       .  S
C158        O195   1.273       .  A
C158        H197   1.084       .  S
Mg159       O188   2.147       .  S
Mg159       O203   2.310       .  S
Mg159       O199   2.290       .  S
Mg159       O170   2.291       .  S
O160       Mg202   2.146       .  S
O160       Mg185   2.130       .  S
O160        C181   1.239       .  S
O161        C192   1.270       .  A
O161       Mg185   2.292       .  S
C162        O164   1.269       .  A
C162        O176   1.279       .  A
C162       C1214   1.480       .  S
O163        C191   1.272       .  A
O163       Mg165   2.292       .  S
O164       Mg196   2.251       .  S
Mg165       O171   2.143       .  S
Mg165       O179   2.296       .  S
Mg165       O167   2.306       .  S
C166        O204   1.274       .  A
C166        O172   1.278       .  A
C166       C1227   1.494       .  S
O167        C174   1.276       .  A
H168        C181   1.079       .  S
C169        O183   1.239       .  S
C169        O184   1.273       .  A
C169        H194   1.081       .  S
O170        C193   1.270       .  A
O171       Mg185   2.151       .  S
O172       Mg202   2.329       .  S
C173        O186   1.272       .  A
C173        O178   1.281       .  A
C173       C1197   1.482       .  S
C174        O201   1.277       .  A
C174       C1204   1.489       .  S
Mg175       O182   2.117       .  S
Mg175       O183   2.140       .  S
Mg175       O176   2.317       .  S
Mg175       O177   2.303       .  S
Mg175       O204   2.269       .  S
O177        C181   1.273       .  A
O178       Mg185   2.319       .  S
O179        C198   1.274       .  A
O180        C200   1.275       .  A
O180       Mg196   2.301       .  S
O182       Mg196   2.143       .  S
O182        C193   1.238       .  S
O183       Mg202   2.128       .  S
O184       Mg196   2.300       .  S
Mg185       O201   2.288       .  S
O186       Mg202   2.269       .  S
H187        C192   1.082       .  S
O188       Mg196   2.115       .  S
O188        C191   1.240       .  S
H189        C191   1.077       .  S
H190        C193   1.086       .  S
O195       Mg202   2.305       .  S
C198        O203   1.281       .  A
C198       C1467   1.492       .  S
O199        C200   1.275       .  A
C200       C1287   1.477       .  S
C205       C1164   1.586       .  S
C205       C1174   1.600       .  S
C205       C1187   1.560       .  S
C205       C1194   1.582   1_556  S
C206       C1134   1.580       .  S
C206       C1147   1.567       .  S
C206       C1157   1.583       .  S
C206       C1627   1.572       .  S
O207       Mg209   2.119       .  S
O207       Mg215   2.148       .  S
O207        C242   1.238       .  S
C208        O221   1.237       .  S
C208        O245   1.271       .  A
C208        H247   1.079       .  S
Mg209       O238   2.147       .  S
Mg209       O253   2.299       .  S
Mg209       O249   2.290       .  S
Mg209       O220   2.295       .  S
O210       Mg252   2.147       .  S
O210       Mg235   2.117       .  S
O210        C231   1.239       .  S
O211        C242   1.272       .  A
O211       Mg235   2.301       .  S
C212        O214   1.274       .  A
C212        O226   1.276       .  A
C212       C1124   1.491       .  S
O213        C241   1.269       .  A
O213       Mg215   2.286       .  S
O214       Mg246   2.297       .  S
Mg215       O221   2.144       .  S
Mg215       O229   2.293       .  S
Mg215       O217   2.263       .  S
C216        O254   1.273       .  A
C216        O222   1.275       .  A
C216       C1434   1.473       .  S
O217        C224   1.271       .  A
H218        C231   1.084       .  S
C219        O233   1.241       .  S
C219        O234   1.275       .  A
C219        H244   1.084       .  S
O220        C243   1.272       .  A
O221       Mg235   2.152       .  S
O222       Mg252   2.306       .  S
C223        O236   1.273       .  A
C223        O228   1.279       .  A
C223       C1104   1.501       .  S
C224        O251   1.271       .  A
C224       C1114   1.474       .  S
Mg225       O232   2.121       .  S
Mg225       O233   2.141       .  S
Mg225       O226   2.300       .  S
Mg225       O227   2.302       .  S
Mg225       O254   2.277       .  S
O227        C231   1.272       .  A
O228       Mg235   2.315       .  S
O229        C248   1.273       .  A
O230        C250   1.277       .  A
O230       Mg246   2.298       .  S
O232       Mg246   2.148       .  S
O232        C243   1.240       .  S
O233       Mg252   2.142       .  S
O234       Mg246   2.306       .  S
Mg235       O251   2.257       .  S
O236       Mg252   2.298       .  S
H237        C242   1.084       .  S
O238       Mg246   2.111       .  S
O238        C241   1.237       .  S
H239        C241   1.084       .  S
H240        C243   1.078       .  S
O245       Mg252   2.300       .  S
C248        O253   1.277       .  A
C248       C1367   1.485       .  S
O249        C250   1.275       .  A
C250       C1154   1.486       .  S
C255       C1084   1.568       .  S
C255       C1094   1.572       .  S
C255       C1107   1.581       .  S
C255       C1647   1.580   1_455  S
O256       Mg258   2.139       .  S
O256       Mg264   2.125       .  S
O256        C291   1.239       .  S
C257        O270   1.240       .  S
C257        O294   1.274       .  A
C257        H296   1.081       .  S
Mg258       O287   2.152       .  S
Mg258       O302   2.329       .  S
Mg258       O298   2.290       .  S
Mg258       O269   2.299       .  S
O259       Mg301   2.128       .  S
O259       Mg284   2.130       .  S
O259        C280   1.239       .  S
O260        C291   1.274       .  A
O260       Mg284   2.314       .  S
C261        O263   1.275       .  A
C261        O275   1.284       .  A
C261       C1327   1.498       .  S
O262        C290   1.275       .  A
O262       Mg264   2.311       .  S
O263       Mg295   2.298       .  S
Mg264       O270   2.144       .  S
Mg264       O278   2.267       .  S
Mg264       O266   2.342       .  S
C265        O303   1.275       .  A
C265        O271   1.281       .  A
C265       C1314   1.486       .  S
O266        C273   1.278       .  A
H267        C280   1.083       .  S
C268        O282   1.240       .  S
C268        O283   1.274       .  A
C268        H293   1.085       .  S
O269        C292   1.272       .  A
O270       Mg284   2.130       .  S
O271       Mg301   2.324       .  S
C272        O285   1.278       .  A
C272        O277   1.282       .  A
C272       C1074   1.497       .  S
C273        O300   1.273       .  A
C273       C1397   1.479       .  S
Mg274       O281   2.123       .  S
Mg274       O282   2.158       .  S
Mg274       O275   2.346       .  S
Mg274       O276   2.300       .  S
Mg274       O303   2.287       .  S
O276        C280   1.273       .  A
O277       Mg284   2.369       .  S
O278        C297   1.272       .  A
O279        C299   1.280       .  A
O279       Mg295   2.312       .  S
O281       Mg295   2.144       .  S
O281        C292   1.239       .  S
O282       Mg301   2.154       .  S
O283       Mg295   2.304       .  S
Mg284       O300   2.267       .  S
O285       Mg301   2.307       .  S
H286        C291   1.086       .  S
O287       Mg295   2.135       .  S
O287        C290   1.241       .  S
H288        C290   1.085       .  S
H289        C292   1.079       .  S
O294       Mg301   2.307       .  S
C297        O302   1.277       .  A
C297       C1057   1.476       .  S
O298        C299   1.273       .  A
C299       C1064   1.498       .  S
C304       C1037   1.582       .  S
C304       C1044   1.597       .  S
C304       C1054   1.592   1_565  S
C304       C1527   1.588       .  S
C305       C1004   1.566       .  S
C305       C1014   1.599       .  S
C305       C1024   1.575   1_655  S
C305       C1067   1.580       .  S
O306       Mg308   2.135       .  S
O306       Mg314   2.149       .  S
O306        C341   1.237       .  S
C307        O320   1.239       .  S
C307        O344   1.272       .  A
C307        H346   1.084       .  S
Mg308       O337   2.125       .  S
Mg308       O352   2.309       .  S
Mg308       O348   2.282       .  S
Mg308       O319   2.303       .  S
O309       Mg351   2.133       .  S
O309       Mg334   2.124       .  S
O309        C330   1.238       .  S
O310        C341   1.270       .  A
O310       Mg334   2.292       .  S
C311        O313   1.269       .  A
C311        O325   1.282       .  A
C311        C987   1.485       .  S
O312        C340   1.273       .  A
O312       Mg314   2.301       .  S
O313       Mg345   2.244       .  S
Mg314       O320   2.113       .  S
Mg314       O328   2.228       .  S
Mg314       O316   2.342       .  S
C315        O353   1.275       .  A
C315        O321   1.273       .  A
C315        C964   1.499       .  S
O316        C323   1.278       .  A
H317        C330   1.078       .  S
C318        O332   1.239       .  S
C318        O333   1.274       .  A
C318        H343   1.085       .  S
O319        C342   1.273       .  A
O320       Mg334   2.131       .  S
O321       Mg351   2.333       .  S
C322        O335   1.272       .  A
C322        O327   1.271       .  A
C322       C1027   1.465       .  S
C323        O350   1.270       .  A
C323        C957   1.485       .  S
Mg324       O331   2.120       .  S
Mg324       O332   2.125       .  S
Mg324       O325   2.354       .  S
Mg324       O326   2.306       .  S
Mg324       O353   2.234       .  S
O326        C330   1.272       .  A
O327       Mg334   2.294       .  S
O328        C347   1.269       .  A
O329        C349   1.276       .  A
O329       Mg345   2.335       .  S
O331       Mg345   2.132       .  S
O331        C342   1.239       .  S
O332       Mg351   2.161       .  S
O333       Mg345   2.312       .  S
Mg334       O350   2.242       .  S
O335       Mg351   2.263       .  S
H336        C341   1.085       .  S
O337       Mg345   2.124       .  S
O337        C340   1.239       .  S
H338        C340   1.078       .  S
H339        C342   1.083       .  S
O344       Mg351   2.296       .  S
C347        O352   1.277       .  A
C347        C994   1.469       .  S
O348        C349   1.276       .  A
C349        C977   1.485       .  S
C354        C934   1.592       .  S
C354        C944   1.568       .  S
C354        C997   1.574   1_556  S
C354       C1117   1.571       .  S
C355        C914   1.595       .  S
C355        C924   1.579   1_545  S
C355        C984   1.587       .  S
C355       C1207   1.582   1_545  S
O356       Mg358   2.144       .  S
O356       Mg364   2.111   1_545  S
O356        C391   1.240       .  S
C357        O370   1.239       .  S
C357        O394   1.274   1_655  A
C357        H396   1.080       .  S
Mg358       O387   2.128   1_655  S
Mg358       O402   2.384       .  S
Mg358       O398   2.252       .  S
Mg358       O369   2.315       .  S
O359       Mg401   2.132   1_655  S
O359       Mg384   2.134       .  S
O359        C380   1.239   1_565  S
O360        C391   1.275       .  A
O360       Mg384   2.313   1_545  S
C361        O363   1.274       .  A
C361        O375   1.281       .  A
C361        C904   1.478       .  S
O362        C390   1.273   1_665  A
O362       Mg364   2.315       .  S
O363       Mg395   2.264       .  S
Mg364       O370   2.142       .  S
Mg364       O378   2.262   1_565  S
Mg364       O366   2.346       .  S
C365        O403   1.279       .  A
C365        O371   1.278   1_545  A
C365       C1447   1.491       .  S
O366        C373   1.278       .  A
H367        C380   1.085       .  S
C368        O382   1.238   1_565  S
C368        O383   1.271   1_565  A
C368        H393   1.080       .  S
O369        C392   1.276       .  A
O370       Mg384   2.132       .  S
O371       Mg401   2.325       .  S
C372        O385   1.271   1_655  A
C372        O377   1.278       .  A
C372        C894   1.479       .  S
C373        O400   1.270       .  A
C373       C1567   1.476       .  S
Mg374       O381   2.161       .  S
Mg374       O382   2.142       .  S
Mg374       O375   2.341       .  S
Mg374       O376   2.297       .  S
Mg374       O403   2.310       .  S
O376        C380   1.272   1_455  A
O377       Mg384   2.348       .  S
O378        C397   1.271       .  A
O379        C399   1.281       .  A
O379       Mg395   2.349       .  S
O381       Mg395   2.153       .  S
O381        C392   1.242   1_455  S
O382       Mg401   2.118   1_545  S
O383       Mg395   2.295       .  S
Mg384       O400   2.243       .  S
O385       Mg401   2.242       .  S
H386        C391   1.080       .  S
O387       Mg395   2.137       .  S
O387        C390   1.238       .  S
H388        C390   1.086       .  S
H389        C392   1.081   1_455  S
O394       Mg401   2.306       .  S
C397        O402   1.281       .  A
C397       C1047   1.503       .  S
O398        C399   1.272   1_655  A
C399       C1017   1.482       .  S
O404       Mg406   2.107       .  S
O404       Mg412   2.133       .  S
O404        C439   1.238       .  S
C405        O418   1.240       .  S
C405        O442   1.274       .  A
C405        H444   1.081       .  S
Mg406       O435   2.144   1_545  S
Mg406       O450   2.357       .  S
Mg406       O446   2.234   1_545  S
Mg406       O417   2.305   1_546  S
O407       Mg449   2.146       .  S
O407       Mg432   2.136       .  S
O407        C428   1.238       .  S
O408        C439   1.271   1_554  A
O408       Mg432   2.290   1_455  S
C409        O411   1.280       .  A
C409        O423   1.279       .  A
C409       C1244   1.505       .  S
O410        C438   1.270       .  A
O410       Mg412   2.297   1_565  S
O411       Mg443   2.320   1_554  S
Mg412       O418   2.154   1_455  S
Mg412       O426   2.318       .  S
Mg412       O414   2.274       .  S
C413        O451   1.276       .  A
C413        O419   1.277       .  A
C413       C1034   1.483       .  S
O414        C421   1.273   1_455  A
H415        C428   1.078   1_455  S
C416        O430   1.240       .  S
C416        O431   1.273   1_554  A
C416        H441   1.085       .  S
O417        C440   1.275       .  A
O418       Mg432   2.170   1_556  S
O419       Mg449   2.311   1_565  S
C420        O433   1.270       .  A
C420        O425   1.274       .  A
C420       C1414   1.490       .  S
C421        O448   1.273       .  A
C421       C1097   1.468       .  S
Mg422       O429   2.135       .  S
Mg422       O430   2.146   1_455  S
Mg422       O423   2.332       .  S
Mg422       O424   2.301   1_565  S
Mg422       O451   2.296   1_455  S
O424        C428   1.272   1_455  A
O425       Mg432   2.300       .  S
O426        C445   1.277       .  A
O427        C447   1.279       .  A
O427       Mg443   2.314       .  S
O429       Mg443   2.143   1_554  S
O429        C440   1.241       .  S
O430       Mg449   2.115   1_565  S
O431       Mg443   2.295   1_655  S
Mg432       O448   2.279   1_554  S
O433       Mg449   2.269       .  S
H434        C439   1.086       .  S
O435       Mg443   2.155       .  S
O435        C438   1.236       .  S
H436        C438   1.079       .  S
H437        C440   1.081       .  S
O442       Mg449   2.311   1_556  S
C445        O450   1.282       .  A
C445       C1457   1.496       .  S
O446        C447   1.271       .  A
C447       C1184   1.473       .  S
O452       Mg454   2.139       .  S
O452       Mg460   2.128       .  S
O452        C487   1.238       .  S
C453        O466   1.237       .  S
C453        O490   1.271   1_565  A
C453        H492   1.082       .  S
Mg454       O483   2.144       .  S
Mg454       O498   2.313       .  S
Mg454       O494   2.272       .  S
Mg454       O465   2.291       .  S
O455       Mg497   2.138       .  S
O455       Mg480   2.146       .  S
O455        C476   1.240       .  S
O456        C487   1.273   1_545  A
O456       Mg480   2.307       .  S
C457        O459   1.273   1_545  A
C457        O471   1.277       .  A
C457       C1677   1.479       .  S
O458        C486   1.274       .  A
O458       Mg460   2.303       .  S
O459       Mg491   2.270       .  S
Mg460       O466   2.112       .  S
Mg460       O474   2.230       .  S
Mg460       O462   2.338       .  S
C461        O499   1.268       .  A
C461        O467   1.273       .  A
C461       C1144   1.466       .  S
O462        C469   1.277       .  A
H463        C476   1.083       .  S
C464        O478   1.236       .  S
C464        O479   1.270   1_545  A
C464        H489   1.085       .  S
O465        C488   1.271   1_565  A
O466       Mg480   2.121   1_565  S
O467       Mg497   2.312       .  S
C468        O481   1.268       .  A
C468        O473   1.278       .  A
C468        C884   1.464       .  S
C469        O496   1.275   1_565  A
C469        C927   1.478       .  S
Mg470       O477   2.110       .  S
Mg470       O478   2.129       .  S
Mg470       O471   2.337       .  S
Mg470       O472   2.314       .  S
Mg470       O499   2.225       .  S
O472        C476   1.274       .  A
O473       Mg480   2.340       .  S
O474        C493   1.270       .  A
O475        C495   1.274       .  A
O475       Mg491   2.298       .  S
O477       Mg491   2.142   1_545  S
O477        C488   1.239       .  S
O478       Mg497   2.130       .  S
O479       Mg491   2.297       .  S
Mg480       O496   2.280       .  S
O481       Mg497   2.224       .  S
H482        C487   1.085       .  S
O483       Mg491   2.131       .  S
O483        C486   1.240       .  S
H484        C486   1.083       .  S
H485        C488   1.083       .  S
O490       Mg497   2.297       .  S
C493        O498   1.275       .  A
C493       C1487   1.461       .  S
O494        C495   1.273       .  A
C495       C1577   1.474       .  S
C500        C887   1.559       .  S
C500        C907   1.593       .  S
C500        C967   1.585       .  S
C500       C1127   1.586       .  S
O501       Mg503   2.136       .  S
O501       Mg509   2.152   1_545  S
O501        C536   1.237       .  S
C502        O515   1.239       .  S
C502        O539   1.272   1_556  A
C502        H541   1.085       .  S
Mg503       O532   2.157   1_556  S
Mg503       O547   2.303       .  S
Mg503       O543   2.321   1_556  S
Mg503       O514   2.295       .  S
O504       Mg546   2.145   1_556  S
O504       Mg529   2.124       .  S
O504        C525   1.237       .  S
O505        C536   1.271       .  A
O505       Mg529   2.298   1_545  S
C506        O508   1.275       .  A
C506        O520   1.278       .  A
C506        C917   1.491       .  S
O507        C535   1.272   1_565  A
O507       Mg509   2.299   1_554  S
O508       Mg540   2.302       .  S
Mg509       O515   2.119       .  S
Mg509       O523   2.252   1_565  S
Mg509       O511   2.319       .  S
C510        O548   1.277       .  A
C510        O516   1.274   1_554  A
C510       C1177   1.482       .  S
O511        C518   1.278       .  A
H512        C525   1.082       .  S
C513        O527   1.240       .  S
C513        O528   1.272       .  A
C513        H538   1.080       .  S
O514        C537   1.271   1_556  A
O515       Mg529   2.144       .  S
O516       Mg546   2.314   1_556  S
C517        O530   1.267       .  A
C517        O522   1.274       .  A
C517        C864   1.473       .  S
C518        O545   1.271       .  A
C518       C1667   1.489       .  S
Mg519       O526   2.129       .  S
Mg519       O527   2.143   1_545  S
Mg519       O520   2.305       .  S
Mg519       O521   2.300   1_554  S
Mg519       O548   2.303   1_545  S
O521        C525   1.271   1_545  A
O522       Mg529   2.269       .  S
O523        C542   1.271       .  A
O524        C544   1.274       .  A
O524       Mg540   2.280       .  S
O526       Mg540   2.157       .  S
O526        C537   1.238       .  S
O527       Mg546   2.125       .  S
O528       Mg540   2.297   1_565  S
Mg529       O545   2.276       .  S
O530       Mg546   2.246   1_556  S
H531        C536   1.079       .  S
O532       Mg540   2.132       .  S
O532        C535   1.239       .  S
H533        C535   1.084       .  S
H534        C537   1.082       .  S
O539       Mg546   2.304       .  S
C542        O547   1.278       .  A
C542       C1404   1.470       .  S
O543        C544   1.277       .  A
C544        C874   1.493       .  S
C549        C857   1.566       .  S
C549        C877   1.587       .  S
C549        C974   1.580       .  S
C549       C1077   1.600       .  S
O550       Mg552   2.158       .  S
O550       Mg558   2.135   1_554  S
O550        C585   1.240       .  S
C551        O564   1.239       .  S
C551        O588   1.272       .  A
C551        H590   1.086       .  S
Mg552       O581   2.131       .  S
Mg552       O596   2.316       .  S
Mg552       O592   2.271       .  S
Mg552       O563   2.295       .  S
O553       Mg595   2.126       .  S
O553       Mg578   2.102       .  S
O553        C574   1.239       .  S
O554        C585   1.276   1_556  A
O554       Mg578   2.318       .  S
C555        O557   1.270       .  A
C555        O569   1.274       .  A
C555        C854   1.460       .  S
O556        C584   1.273   1_556  A
O556       Mg558   2.307       .  S
O557       Mg589   2.232       .  S
Mg558       O564   2.129       .  S
Mg558       O572   2.269       .  S
Mg558       O560   2.340       .  S
C559        O597   1.269   1_556  A
C559        O565   1.273       .  A
C559        C947   1.461       .  S
O560        C567   1.280       .  A
H561        C574   1.080       .  S
C562        O576   1.238       .  S
C562        O577   1.271       .  A
C562        H587   1.080       .  S
O563        C586   1.270       .  A
O564       Mg578   2.135       .  S
O565       Mg595   2.307       .  S
C566        O579   1.271       .  A
C566        O571   1.280       .  A
C566       C1377   1.493       .  S
C567        O594   1.271       .  A
C567        C847   1.482       .  S
Mg568       O575   2.117       .  S
Mg568       O576   2.130   1_554  S
Mg568       O569   2.311       .  S
Mg568       O570   2.291       .  S
Mg568       O597   2.224       .  S
O570        C574   1.271   1_554  A
O571       Mg578   2.353       .  S
O572        C591   1.274   1_556  A
O573        C593   1.274       .  A
O573       Mg589   2.322       .  S
O575       Mg589   2.132       .  S
O575        C586   1.237       .  S
O576       Mg595   2.126       .  S
O577       Mg589   2.294   1_556  S
Mg578       O594   2.243       .  S
O579       Mg595   2.246       .  S
H580        C585   1.080       .  S
O581       Mg589   2.123       .  S
O581        C584   1.239       .  S
H582        C584   1.080       .  S
H583        C586   1.086       .  S
O588       Mg595   2.300       .  S
C591        O596   1.274       .  A
C591       C1507   1.475       .  S
O592        C593   1.274       .  A
C593       C1297   1.475       .  S
O598       Mg600   2.141       .  S
O598       Mg606   2.131       .  S
O598        C633   1.238       .  S
C599        O612   1.239       .  S
C599        O636   1.273       .  A
C599        H638   1.083       .  S
Mg600       O629   2.142       .  S
Mg600       O644   2.344       .  S
Mg600       O640   2.296       .  S
Mg600       O611   2.297       .  S
O601       Mg643   2.146       .  S
O601       Mg626   2.153       .  S
O601        C622   1.239       .  S
O602        C633   1.273       .  A
O602       Mg626   2.308   1_655  S
C603        O605   1.272       .  A
C603        O617   1.277       .  A
C603       C1007   1.489       .  S
O604        C632   1.273       .  A
O604       Mg606   2.306       .  S
O605       Mg637   2.283       .  S
Mg606       O612   2.138   1_655  S
Mg606       O620   2.268       .  S
Mg606       O608   2.361       .  S
C607        O645   1.271       .  A
C607        O613   1.275       .  A
C607        C834   1.478       .  S
O608        C615   1.281   1_655  A
H609        C622   1.081   1_655  S
C610        O624   1.239       .  S
C610        O625   1.271       .  A
C610        H635   1.084       .  S
O611        C634   1.274       .  A
O612       Mg626   2.133       .  S
O613       Mg643   2.302       .  S
C614        O627   1.265       .  A
C614        O619   1.284       .  A
C614       C1274   1.495       .  S
C615        O642   1.278       .  A
C615        C824   1.493       .  S
Mg616       O623   2.109       .  S
Mg616       O624   2.145   1_655  S
Mg616       O617   2.302       .  S
Mg616       O618   2.303       .  S
Mg616       O645   2.272   1_655  S
O618        C622   1.272   1_655  A
O619       Mg626   2.349       .  S
O620        C639   1.274       .  A
O621        C641   1.271       .  A
O621       Mg637   2.270       .  S
O623       Mg637   2.144       .  S
O623        C634   1.241       .  S
O624       Mg643   2.109       .  S
O625       Mg637   2.289   1_455  S
Mg626       O642   2.301       .  S
O627       Mg643   2.232       .  S
H628        C633   1.084       .  S
O629       Mg637   2.126       .  S
O629        C632   1.239       .  S
H630        C632   1.079       .  S
H631        C634   1.083       .  S
O636       Mg643   2.306       .  S
C639        O644   1.281       .  A
C639       C1597   1.476       .  S
O640        C641   1.276       .  A
C641       C1347   1.482       .  S
O646       Mg648   2.100   1_554  S
O646       Mg654   2.148       .  S
O646        C681   1.238       .  S
C647        O660   1.240       .  S
C647        O684   1.273   1_554  A
C647        H686   1.085       .  S
Mg648       O677   2.141       .  S
Mg648       O692   2.302   1_556  S
Mg648       O688   2.243       .  S
Mg648       O659   2.306   1_455  S
O649       Mg691   2.147   1_554  S
O649       Mg674   2.139       .  S
O649        C670   1.239       .  S
O650        C681   1.271   1_655  A
O650       Mg674   2.288       .  S
C651        O653   1.270       .  A
C651        O665   1.279       .  A
C651       C1607   1.466       .  S
O652        C680   1.270       .  A
O652       Mg654   2.295   1_556  S
O653       Mg685   2.252   1_655  S
Mg654       O660   2.134       .  S
Mg654       O668   2.307       .  S
Mg654       O656   2.299       .  S
C655        O693   1.277       .  A
C655        O661   1.280       .  A
C655       C1497   1.507       .  S
O656        C663   1.276       .  A
H657        C670   1.082       .  S
C658        O672   1.240       .  S
C658        O673   1.273   1_655  A
C658        H683   1.080       .  S
O659        C682   1.274       .  A
O660       Mg674   2.154   1_455  S
O661       Mg691   2.304       .  S
C662        O675   1.275       .  A
C662        O667   1.278       .  A
C662       C1234   1.498       .  S
C663        O690   1.274       .  A
C663        C814   1.470       .  S
Mg664       O671   2.141       .  S
Mg664       O672   2.154       .  S
Mg664       O665   2.326       .  S
Mg664       O666   2.301   1_556  S
Mg664       O693   2.330       .  S
O666        C670   1.273       .  A
O667       Mg674   2.311       .  S
O668        C687   1.275       .  A
O669        C689   1.275       .  A
O669       Mg685   2.301       .  S
O671       Mg685   2.141   1_655  S
O671        C682   1.240       .  S
O672       Mg691   2.125       .  S
O673       Mg685   2.300       .  S
Mg674       O690   2.280   1_655  S
O675       Mg691   2.301   1_554  S
H676        C681   1.081       .  S
O677       Mg685   2.125       .  S
O677        C680   1.237       .  S
H678        C680   1.084       .  S
H679        C682   1.086       .  S
O684       Mg691   2.302   1_455  S
C687        O692   1.276       .  A
C687        C937   1.495       .  S
O688        C689   1.269       .  A
C689       C1087   1.468       .  S
C694        C817   1.577       .  S
C694        C837   1.583       .  S
C694        C954   1.591       .  S
C694       C1217   1.563       .  S
O695       Mg697   2.134       .  S
O695       Mg703   2.147       .  S
O695        C730   1.235       .  S
C696        O709   1.240       .  S
C696        O733   1.273       .  A
C696        H735   1.082       .  S
Mg697       O726   2.147       .  S
Mg697       O741   2.283       .  S
Mg697       O737   2.293       .  S
Mg697       O708   2.291       .  S
O698       Mg740   2.146       .  S
O698       Mg723   2.116       .  S
O698        C719   1.240       .  S
O699        C730   1.269       .  A
O699       Mg723   2.300       .  S
C700        O702   1.272       .  A
C700        O714   1.277       .  A
C700       C1137   1.472       .  S
O701        C729   1.275       .  A
O701       Mg703   2.307       .  S
O702       Mg734   2.256       .  S
Mg703       O709   2.134       .  S
Mg703       O717   2.265       .  S
Mg703       O705   2.321       .  S
C704        O742   1.271       .  A
C704        O710   1.271       .  A
C704       C1387   1.478       .  S
O705        C712   1.277       .  A
H706        C719   1.078       .  S
C707        O721   1.239       .  S
C707        O722   1.273       .  A
C707        H732   1.087       .  S
O708        C731   1.270       .  A
O709       Mg723   2.147       .  S
O710       Mg740   2.273       .  S
C711        O724   1.274       .  A
C711        O716   1.280       .  A
C711       C1264   1.500       .  S
C712        O739   1.273       .  A
C712       C1477   1.471       .  S
Mg713       O720   2.116       .  S
Mg713       O721   2.152       .  S
Mg713       O714   2.329       .  S
Mg713       O715   2.301       .  S
Mg713       O742   2.260       .  S
O715        C719   1.273       .  A
O716       Mg723   2.322       .  S
O717        C736   1.269       .  A
O718        C738   1.279       .  A
O718       Mg734   2.342       .  S
O720       Mg734   2.125       .  S
O720        C731   1.237       .  S
O721       Mg740   2.151       .  S
O722       Mg734   2.310       .  S
Mg723       O739   2.267       .  S
O724       Mg740   2.307       .  S
H725        C730   1.086       .  S
O726       Mg734   2.134       .  S
O726        C729   1.241       .  S
H727        C729   1.078       .  S
H728        C731   1.081       .  S
O733       Mg740   2.299       .  S
C736        O741   1.277       .  A
C736       C1307   1.489       .  S
O737        C738   1.275       .  A
C738       C1337   1.484       .  S
C743        C804   1.583       .  S
C743        C827   1.603       .  S
C743        C897   1.588   1_455  S
C743       C1747   1.595   1_455  S
O744       Mg746   2.121       .  S
O744       Mg752   2.155       .  S
O744        C779   1.237       .  S
C745        O758   1.238       .  S
C745        O782   1.270       .  A
C745        H784   1.085       .  S
Mg746       O775   2.139       .  S
Mg746       O790   2.300       .  S
Mg746       O786   2.283       .  S
Mg746       O757   2.302       .  S
O747       Mg789   2.160       .  S
O747       Mg772   2.137       .  S
O747        C768   1.239       .  S
O748        C779   1.270       .  A
O748       Mg772   2.291       .  S
C749        O751   1.278       .  A
C749        O763   1.280       .  A
C749        C807   1.490       .  S
O750        C778   1.274       .  A
O750       Mg752   2.308       .  S
O751       Mg783   2.299       .  S
Mg752       O758   2.112       .  S
Mg752       O766   2.289       .  S
Mg752       O754   2.295       .  S
C753        O791   1.274       .  A
C753        O759   1.277       .  A
C753       C1257   1.480       .  S
O754        C761   1.276       .  A
H755        C768   1.085       .  S
C756        O770   1.238       .  S
C756        O771   1.272       .  A
C756        H781   1.080       .  S
O757        C780   1.273       .  A
O758       Mg772   2.159       .  S
O759       Mg789   2.311       .  S
C760        O773   1.273       .  A
C760        O765   1.274       .  A
C760       C1357   1.472       .  S
C761        O788   1.273       .  A
C761        C794   1.491       .  S
Mg762       O769   2.135       .  S
Mg762       O770   2.146       .  S
Mg762       O763   2.334       .  S
Mg762       O764   2.299       .  S
Mg762       O791   2.280       .  S
O764        C768   1.273       .  A
O765       Mg772   2.273       .  S
O766        C785   1.271       .  A
O767        C787   1.282       .  A
O767       Mg783   2.353       .  S
O769       Mg783   2.145       .  S
O769        C780   1.240       .  S
O770       Mg789   2.131       .  S
O771       Mg783   2.297       .  S
Mg772       O788   2.301       .  S
O773       Mg789   2.280       .  S
H774        C779   1.080       .  S
O775       Mg783   2.145       .  S
O775        C778   1.240       .  S
H776        C778   1.086       .  S
H777        C780   1.083       .  S
O782       Mg789   2.289       .  S
C785        O790   1.280       .  A
C785       C1167   1.496       .  S
O786        C787   1.274       .  A
C787       C1427   1.482       .  S
C792        C797   1.592       .  S
C792        C844   1.588       .  S
C792        C867   1.559       .  S
C792       C1717   1.567       .  S
C793        H800   1.083       .  S
C793        C794   1.409       .  A
C793        C798   1.419       .  A
C794        C795   1.402       .  A
C795        C796   1.383       .  A
C795       Br802   1.933       .  S
C796        H801   1.071       .  S
C796        C797   1.427       .  A
C797        C798   1.432       .  A
C798       Br799   1.920       .  S
C803        H810   1.084       .  S
C803        C804   1.428       .  A
C803        C808   1.395       .  A
C804        C805   1.431       .  A
C805        C806   1.415       .  A
C805       Br812   1.920       .  S
C806        H811   1.083       .  S
C806        C807   1.407       .  A
C807        C808   1.399       .  A
C808       Br809   1.920       .  S
C813        H820   1.085       .  S
C813        C814   1.383       .  A
C813        C818   1.393       .  A
C814        C815   1.402       .  A
C815        C816   1.406       .  A
C815       Br822   1.916       .  S
C816        H821   1.078       .  S
C816        C817   1.420       .  A
C817        C818   1.449       .  A
C818       Br819   1.932       .  S
C823        H830   1.083       .  S
C823        C824   1.406   1_655  A
C823        C828   1.419       .  A
C824        C825   1.396       .  A
C825        C826   1.396       .  A
C825       Br832   1.924       .  S
C826        H831   1.073       .  S
C826        C827   1.432       .  A
C827        C828   1.437   1_455  A
C828       Br829   1.926       .  S
C833        H840   1.085       .  S
C833        C834   1.390       .  A
C833        C838   1.392       .  A
C834        C835   1.406       .  A
C835        C836   1.407       .  A
C835       Br842   1.918       .  S
C836        H841   1.077       .  S
C836        C837   1.419       .  A
C837        C838   1.438       .  A
C838       Br839   1.926       .  S
C843        H850   1.071       .  S
C843        C844   1.431       .  A
C843        C848   1.388       .  A
C844        C845   1.431       .  A
C845        C846   1.411       .  A
C845       Br852   1.924       .  S
C846        H851   1.083       .  S
C846        C847   1.406       .  A
C847        C848   1.395       .  A
C848       Br849   1.926       .  S
C853        H860   1.084       .  S
C853        C854   1.385       .  A
C853        C858   1.387       .  A
C854        C855   1.402       .  A
C855        C856   1.404       .  A
C855       Br862   1.916       .  S
C856        H861   1.078       .  S
C856        C857   1.416       .  A
C857        C858   1.439       .  A
C858       Br859   1.928       .  S
C863        H870   1.084       .  S
C863        C864   1.390       .  A
C863        C868   1.380       .  A
C864        C865   1.411       .  A
C865        C866   1.405       .  A
C865       Br872   1.919       .  S
C866        H871   1.079       .  S
C866        C867   1.413       .  A
C867        C868   1.438       .  A
C868       Br869   1.933       .  S
C873        H880   1.082       .  S
C873        C874   1.405       .  A
C873        C878   1.416       .  A
C874        C875   1.406       .  A
C875        C876   1.387       .  A
C875       Br882   1.930       .  S
C876        H881   1.073       .  S
C876        C877   1.422       .  A
C877        C878   1.434       .  A
C878       Br879   1.922       .  S
C883        H890   1.083       .  S
C883        C884   1.407       .  A
C883        C888   1.411       .  A
C884        C885   1.394       .  A
C885        C886   1.385       .  A
C885       Br892   1.922       .  S
C886        H891   1.082       .  S
C886        C887   1.428       .  A
C887        C888   1.425       .  A
C888       Br889   1.920       .  S
C893        H900   1.085   1_655  S
C893        C894   1.387       .  A
C893        C898   1.389   1_655  A
C894        C895   1.408       .  A
C895        C896   1.412       .  A
C895       Br902   1.916       .  S
C896        H901   1.078       .  S
C896        C897   1.418       .  A
C897        C898   1.445   1_655  A
C898       Br899   1.931       .  S
C903        H910   1.084       .  S
C903        C904   1.401       .  A
C903        C908   1.409       .  A
C904        C905   1.391       .  A
C905        C906   1.394       .  A
C905       Br912   1.922       .  S
C906        H911   1.079       .  S
C906        C907   1.435       .  A
C907        C908   1.431       .  A
C908       Br909   1.911       .  S
C913        H920   1.069       .  S
C913        C914   1.427   1_565  A
C913        C918   1.388       .  A
C914        C915   1.438       .  A
C915        C916   1.417       .  A
C915       Br922   1.921       .  S
C916        H921   1.083       .  S
C916        C917   1.406       .  A
C917        C918   1.400   1_545  A
C918       Br919   1.927       .  S
C923        H930   1.083       .  S
C923        C924   1.426       .  A
C923        C928   1.390       .  A
C924        C925   1.429       .  A
C925        C926   1.413       .  A
C925       Br932   1.919       .  S
C926        H931   1.083       .  S
C926        C927   1.405       .  A
C927        C928   1.395       .  A
C928       Br929   1.919       .  S
C933        H940   1.074       .  S
C933        C934   1.426       .  A
C933        C938   1.389       .  A
C934        C935   1.432   1_556  A
C935        C936   1.416       .  A
C935       Br942   1.921       .  S
C936        H941   1.084       .  S
C936        C937   1.407       .  A
C937        C938   1.405   1_554  A
C938       Br939   1.930       .  S
C943        H950   1.079       .  S
C943        C944   1.414       .  A
C943        C948   1.406       .  A
C944        C945   1.439       .  A
C945        C946   1.383       .  A
C945       Br952   1.924       .  S
C946        H951   1.085       .  S
C946        C947   1.383       .  A
C947        C948   1.406       .  A
C948       Br949   1.916       .  S
C953        H960   1.079       .  S
C953        C954   1.429       .  A
C953        C958   1.388       .  A
C954        C955   1.437       .  A
C955        C956   1.414       .  A
C955       Br962   1.911       .  S
C956        H961   1.083       .  S
C956        C957   1.402       .  A
C957        C958   1.399       .  A
C958       Br959   1.927       .  S
C963        H970   1.083       .  S
C963        C964   1.389       .  A
C963        C968   1.383       .  A
C964        C965   1.415       .  A
C965        C966   1.417       .  A
C965       Br972   1.917       .  S
C966        H971   1.082       .  S
C966        C967   1.421       .  A
C967        C968   1.454       .  A
C968       Br969   1.949       .  S
C973        H980   1.080       .  S
C973        C974   1.416       .  A
C973        C978   1.415       .  A
C974        C975   1.443       .  A
C975        C976   1.391       .  A
C975       Br982   1.929       .  S
C976        H981   1.085       .  S
C976        C977   1.387       .  A
C977        C978   1.413       .  A
C978       Br979   1.916       .  S
C983        H990   1.072       .  S
C983        C984   1.431       .  A
C983        C988   1.392       .  A
C984        C985   1.431       .  A
C985        C986   1.411       .  A
C985       Br992   1.924       .  S
C986        H991   1.083       .  S
C986        C987   1.407       .  A
C987        C988   1.396       .  A
C988       Br989   1.925       .  S
C993       H1000   1.084       .  S
C993        C994   1.404       .  A
C993        C998   1.405       .  A
C994        C995   1.393       .  A
C995        C996   1.383       .  A
C995      Br1002   1.927       .  S
C996       H1001   1.074       .  S
C996        C997   1.428       .  A
C997        C998   1.431       .  A
C998       Br999   1.927       .  S
C1003      H1010   1.079       .  S
C1003      C1004   1.415       .  A
C1003      C1008   1.410       .  A
C1004      C1005   1.436       .  A
C1005      C1006   1.391       .  A
C1005     Br1012   1.921       .  S
C1006      H1011   1.084       .  S
C1006      C1007   1.394       .  A
C1007      C1008   1.414       .  A
C1008     Br1009   1.918       .  S
C1013      H1020   1.076       .  S
C1013      C1014   1.436   1_455  A
C1013      C1018   1.394       .  A
C1014      C1015   1.432       .  A
C1015      C1016   1.410       .  A
C1015     Br1022   1.919       .  S
C1016      H1021   1.084       .  S
C1016      C1017   1.403   1_655  A
C1017      C1018   1.393       .  A
C1018     Br1019   1.924       .  S
C1023      H1030   1.082       .  S
C1023      C1024   1.428       .  A
C1023      C1028   1.386       .  A
C1024      C1025   1.434       .  A
C1025      C1026   1.408       .  A
C1025     Br1032   1.923       .  S
C1026      H1031   1.084       .  S
C1026      C1027   1.400       .  A
C1027      C1028   1.391       .  A
C1028     Br1029   1.920       .  S
C1033      H1040   1.084       .  S
C1033      C1034   1.407       .  A
C1033      C1038   1.418       .  A
C1034      C1035   1.397       .  A
C1035      C1036   1.387       .  A
C1035     Br1042   1.922       .  S
C1036      H1041   1.084       .  S
C1036      C1037   1.425       .  A
C1037      C1038   1.433       .  A
C1038     Br1039   1.920   1_565  S
C1043      H1050   1.070       .  S
C1043      C1044   1.422       .  A
C1043      C1048   1.392       .  A
C1044      C1045   1.442   1_565  A
C1045      C1046   1.420       .  A
C1045     Br1052   1.924       .  S
C1046      H1051   1.083       .  S
C1046      C1047   1.406       .  A
C1047      C1048   1.407   1_545  A
C1048     Br1049   1.930       .  S
C1053      H1060   1.074       .  S
C1053      C1054   1.433       .  A
C1053      C1058   1.391       .  A
C1054      C1055   1.433       .  A
C1055      C1056   1.411       .  A
C1055     Br1062   1.924       .  S
C1056      H1061   1.084       .  S
C1056      C1057   1.402       .  A
C1057      C1058   1.392       .  A
C1058     Br1059   1.924       .  S
C1063      H1070   1.084       .  S
C1063      C1064   1.393       .  A
C1063      C1068   1.394       .  A
C1064      C1065   1.410       .  A
C1065      C1066   1.410       .  A
C1065     Br1072   1.919       .  S
C1066      H1071   1.083       .  S
C1066      C1067   1.423       .  A
C1067      C1068   1.447       .  A
C1068     Br1069   1.936       .  S
C1073      H1080   1.083       .  S
C1073      C1074   1.407       .  A
C1073      C1078   1.420       .  A
C1074      C1075   1.396       .  A
C1075      C1076   1.398       .  A
C1075     Br1082   1.923       .  S
C1076      H1081   1.073       .  S
C1076      C1077   1.433       .  A
C1077      C1078   1.434       .  A
C1078     Br1079   1.921       .  S
C1083      H1090   1.067   1_455  S
C1083      C1084   1.417       .  A
C1083      C1088   1.399       .  A
C1084      C1085   1.441       .  A
C1085      C1086   1.394       .  A
C1085     Br1092   1.926       .  S
C1086      H1091   1.084       .  S
C1086      C1087   1.387       .  A
C1087      C1088   1.403       .  A
C1088     Br1089   1.921       .  S
C1093      H1100   1.066       .  S
C1093      C1094   1.421       .  A
C1093      C1098   1.406       .  A
C1094      C1095   1.441   1_455  A
C1095      C1096   1.388       .  A
C1095     Br1102   1.927       .  S
C1096      H1101   1.085       .  S
C1096      C1097   1.385       .  A
C1097      C1098   1.401   1_655  A
C1098     Br1099   1.918       .  S
C1103      H1110   1.084       .  S
C1103      C1104   1.393       .  A
C1103      C1108   1.393       .  A
C1104      C1105   1.414       .  A
C1105      C1106   1.414       .  A
C1105     Br1112   1.918       .  S
C1106      H1111   1.070       .  S
C1106      C1107   1.418       .  A
C1107      C1108   1.442       .  A
C1108     Br1109   1.929       .  S
C1113      H1120   1.084       .  S
C1113      C1114   1.404       .  A
C1113      C1118   1.406       .  A
C1114      C1115   1.402       .  A
C1115      C1116   1.380       .  A
C1115     Br1122   1.928       .  S
C1116      H1121   1.083       .  S
C1116      C1117   1.424       .  A
C1117      C1118   1.431       .  A
C1118     Br1119   1.924       .  S
C1123      H1130   1.083       .  S
C1123      C1124   1.414       .  A
C1123      C1128   1.421       .  A
C1124      C1125   1.401       .  A
C1125      C1126   1.381       .  A
C1125     Br1132   1.927       .  S
C1126      H1131   1.079       .  S
C1126      C1127   1.422       .  A
C1127      C1128   1.428       .  A
C1128     Br1129   1.916       .  S
C1133      H1140   1.075       .  S
C1133      C1134   1.425       .  A
C1133      C1138   1.390       .  A
C1134      C1135   1.436       .  A
C1135      C1136   1.406       .  A
C1135     Br1142   1.926       .  S
C1136      H1141   1.084       .  S
C1136      C1137   1.398       .  A
C1137      C1138   1.396       .  A
C1138     Br1139   1.923       .  S
C1143      H1150   1.085       .  S
C1143      C1144   1.391       .  A
C1143      C1148   1.388       .  A
C1144      C1145   1.403       .  A
C1145      C1146   1.401       .  A
C1145     Br1152   1.919       .  S
C1146      H1151   1.079       .  S
C1146      C1147   1.418       .  A
C1147      C1148   1.435       .  A
C1148     Br1149   1.929       .  S
C1153      H1160   1.083       .  S
C1153      C1154   1.403       .  A
C1153      C1158   1.411       .  A
C1154      C1155   1.405       .  A
C1155      C1156   1.388       .  A
C1155     Br1162   1.928       .  S
C1156      H1161   1.072       .  S
C1156      C1157   1.422       .  A
C1157      C1158   1.434       .  A
C1158     Br1159   1.922       .  S
C1163      H1170   1.083       .  S
C1163      C1164   1.420       .  A
C1163      C1168   1.416       .  A
C1164      C1165   1.451       .  A
C1165      C1166   1.386       .  A
C1165     Br1172   1.943       .  S
C1166      H1171   1.085       .  S
C1166      C1167   1.389       .  A
C1167      C1168   1.414       .  A
C1168     Br1169   1.918       .  S
C1173      H1180   1.074       .  S
C1173      C1174   1.433   1_554  A
C1173      C1178   1.394       .  A
C1174      C1175   1.438       .  A
C1175      C1176   1.413       .  A
C1175     Br1182   1.916       .  S
C1176      H1181   1.084       .  S
C1176      C1177   1.400   1_556  A
C1177      C1178   1.391       .  A
C1178     Br1179   1.920       .  S
C1183      H1190   1.084       .  S
C1183      C1184   1.409       .  A
C1183      C1188   1.407       .  A
C1184      C1185   1.396       .  A
C1185      C1186   1.386       .  A
C1185     Br1192   1.924       .  S
C1186      H1191   1.083       .  S
C1186      C1187   1.431       .  A
C1187      C1188   1.427       .  A
C1188     Br1189   1.920       .  S
C1193      H1200   1.079       .  S
C1193      C1194   1.417       .  A
C1193      C1198   1.413       .  A
C1194      C1195   1.440       .  A
C1195      C1196   1.386       .  A
C1195     Br1202   1.922       .  S
C1196      H1201   1.085       .  S
C1196      C1197   1.387       .  A
C1197      C1198   1.413       .  A
C1198     Br1199   1.917       .  S
C1203      H1210   1.082       .  S
C1203      C1204   1.407       .  A
C1203      C1208   1.410       .  A
C1204      C1205   1.405       .  A
C1205      C1206   1.392       .  A
C1205     Br1212   1.924       .  S
C1206      H1211   1.083       .  S
C1206      C1207   1.425       .  A
C1207      C1208   1.427       .  A
C1208     Br1209   1.921       .  S
C1213      H1220   1.084       .  S
C1213      C1214   1.388       .  A
C1213      C1218   1.389       .  A
C1214      C1215   1.412       .  A
C1215      C1216   1.409       .  A
C1215     Br1222   1.919       .  S
C1216      H1221   1.075       .  S
C1216      C1217   1.413       .  A
C1217      C1218   1.441       .  A
C1218     Br1219   1.927       .  S
C1223      H1230   1.077       .  S
C1223      C1224   1.422       .  A
C1223      C1228   1.400       .  A
C1224      C1225   1.433       .  A
C1225      C1226   1.407       .  A
C1225     Br1232   1.918       .  S
C1226      H1231   1.084       .  S
C1226      C1227   1.403       .  A
C1227      C1228   1.408       .  A
C1228     Br1229   1.924       .  S
C1233      H1240   1.084       .  S
C1233      C1234   1.402   1_455  A
C1233      C1238   1.401       .  A
C1234      C1235   1.411       .  A
C1235      C1236   1.408       .  A
C1235     Br1242   1.920       .  S
C1236      H1241   1.083       .  S
C1236      C1237   1.422       .  A
C1237      C1238   1.435   1_655  A
C1238     Br1239   1.929       .  S
C1243      H1250   1.084       .  S
C1243      C1244   1.403       .  A
C1243      C1248   1.410       .  A
C1244      C1245   1.414   1_455  A
C1245      C1246   1.406       .  A
C1245     Br1252   1.922       .  S
C1246      H1251   1.076       .  S
C1246      C1247   1.417       .  A
C1247      C1248   1.433   1_655  A
C1248     Br1249   1.912       .  S
C1253      H1260   1.075       .  S
C1253      C1254   1.418       .  A
C1253      C1258   1.407       .  A
C1254      C1255   1.439       .  A
C1255      C1256   1.394       .  A
C1255     Br1262   1.927       .  S
C1256      H1261   1.084       .  S
C1256      C1257   1.390       .  A
C1257      C1258   1.408       .  A
C1258     Br1259   1.917       .  S
C1263      H1270   1.084       .  S
C1263      C1264   1.393       .  A
C1263      C1268   1.392       .  A
C1264      C1265   1.415       .  A
C1265      C1266   1.418       .  A
C1265     Br1272   1.917       .  S
C1266      H1271   1.076       .  S
C1266      C1267   1.421       .  A
C1267      C1268   1.438       .  A
C1268     Br1269   1.927       .  S
C1273      H1280   1.084       .  S
C1273      C1274   1.390       .  A
C1273      C1278   1.395       .  A
C1274      C1275   1.418       .  A
C1275      C1276   1.407       .  A
C1275     Br1282   1.924       .  S
C1276      H1281   1.070       .  S
C1276      C1277   1.412       .  A
C1277      C1278   1.448       .  A
C1278     Br1279   1.931       .  S
C1283      H1290   1.074       .  S
C1283      C1284   1.418       .  A
C1283      C1288   1.410       .  A
C1284      C1285   1.447       .  A
C1285      C1286   1.393       .  A
C1285     Br1292   1.930       .  S
C1286      H1291   1.085       .  S
C1286      C1287   1.384       .  A
C1287      C1288   1.406       .  A
C1288     Br1289   1.917       .  S
C1293      H1300   1.082       .  S
C1293      C1294   1.425       .  A
C1293      C1298   1.389       .  A
C1294      C1295   1.442       .  A
C1295      C1296   1.413       .  A
C1295     Br1302   1.925       .  S
C1296      H1301   1.084       .  S
C1296      C1297   1.402       .  A
C1297      C1298   1.393       .  A
C1298     Br1299   1.920       .  S
C1303      H1310   1.080       .  S
C1303      C1304   1.413       .  A
C1303      C1308   1.406       .  A
C1304      C1305   1.444       .  A
C1305      C1306   1.386       .  A
C1305     Br1312   1.938       .  S
C1306      H1311   1.084       .  S
C1306      C1307   1.393       .  A
C1307      C1308   1.413       .  A
C1308     Br1309   1.920       .  S
C1313      H1320   1.085       .  S
C1313      C1314   1.388       .  A
C1313      C1318   1.390       .  A
C1314      C1315   1.414       .  A
C1315      C1316   1.415       .  A
C1315     Br1322   1.916       .  S
C1316      H1321   1.081       .  S
C1316      C1317   1.418       .  A
C1317      C1318   1.436       .  A
C1318     Br1319   1.914       .  S
C1323      H1330   1.075       .  S
C1323      C1324   1.419       .  A
C1323      C1328   1.418       .  A
C1324      C1325   1.440       .  A
C1325      C1326   1.393       .  A
C1325     Br1332   1.919       .  S
C1326      H1331   1.084       .  S
C1326      C1327   1.390       .  A
C1327      C1328   1.416       .  A
C1328     Br1329   1.918       .  S
C1333      H1340   1.075       .  S
C1333      C1334   1.437       .  A
C1333      C1338   1.398       .  A
C1334      C1335   1.438       .  A
C1335      C1336   1.413       .  A
C1335     Br1342   1.912       .  S
C1336      H1341   1.083       .  S
C1336      C1337   1.398       .  A
C1337      C1338   1.392       .  A
C1338     Br1339   1.921       .  S
C1343      H1350   1.083       .  S
C1343      C1344   1.425       .  A
C1343      C1348   1.383       .  A
C1344      C1345   1.432       .  A
C1345      C1346   1.416       .  A
C1345     Br1352   1.919       .  S
C1346      H1351   1.083       .  S
C1346      C1347   1.411       .  A
C1347      C1348   1.403       .  A
C1348     Br1349   1.927       .  S
C1353      H1360   1.078       .  S
C1353      C1354   1.418       .  A
C1353      C1358   1.404       .  A
C1354      C1355   1.436       .  A
C1355      C1356   1.387       .  A
C1355     Br1362   1.932       .  S
C1356      H1361   1.085       .  S
C1356      C1357   1.391       .  A
C1357      C1358   1.406       .  A
C1358     Br1359   1.918       .  S
C1363      H1370   1.068       .  S
C1363      C1364   1.428       .  A
C1363      C1368   1.384       .  A
C1364      C1365   1.432       .  A
C1365      C1366   1.415       .  A
C1365     Br1372   1.923       .  S
C1366      H1371   1.083       .  S
C1366      C1367   1.407       .  A
C1367      C1368   1.400       .  A
C1368     Br1369   1.930       .  S
C1373      H1380   1.069       .  S
C1373      C1374   1.429       .  A
C1373      C1378   1.397       .  A
C1374      C1375   1.433       .  A
C1375      C1376   1.407       .  A
C1375     Br1382   1.927       .  S
C1376      H1381   1.084       .  S
C1376      C1377   1.406       .  A
C1377      C1378   1.401       .  A
C1378     Br1379   1.925       .  S
C1383      H1390   1.082       .  S
C1383      C1384   1.426       .  A
C1383      C1388   1.384       .  A
C1384      C1385   1.425       .  A
C1385      C1386   1.408       .  A
C1385     Br1392   1.921       .  S
C1386      H1391   1.084       .  S
C1386      C1387   1.408       .  A
C1387      C1388   1.403       .  A
C1388     Br1389   1.927       .  S
C1393      H1400   1.075       .  S
C1393      C1394   1.438       .  A
C1393      C1398   1.392       .  A
C1394      C1395   1.430       .  A
C1395      C1396   1.416       .  A
C1395     Br1402   1.918       .  S
C1396      H1401   1.084       .  S
C1396      C1397   1.405       .  A
C1397      C1398   1.389       .  A
C1398     Br1399   1.924       .  S
C1403      H1410   1.084       .  S
C1403      C1404   1.405       .  A
C1403      C1408   1.410       .  A
C1404      C1405   1.394       .  A
C1405      C1406   1.380       .  A
C1405     Br1412   1.924       .  S
C1406      H1411   1.082       .  S
C1406      C1407   1.429       .  A
C1407      C1408   1.430       .  A
C1408     Br1409   1.921   1_556  S
C1413      H1420   1.083       .  S
C1413      C1414   1.407       .  A
C1413      C1418   1.413       .  A
C1414      C1415   1.403   1_554  A
C1415      C1416   1.385       .  A
C1415     Br1422   1.932       .  S
C1416      H1421   1.072       .  S
C1416      C1417   1.428   1_556  A
C1417      C1418   1.434       .  A
C1418     Br1419   1.924       .  S
C1423      H1430   1.077       .  S
C1423      C1424   1.421       .  A
C1423      C1428   1.400       .  A
C1424      C1425   1.436       .  A
C1425      C1426   1.410       .  A
C1425     Br1432   1.920       .  S
C1426      H1431   1.085       .  S
C1426      C1427   1.399       .  A
C1427      C1428   1.398       .  A
C1428     Br1429   1.916       .  S
C1433      H1440   1.084       .  S
C1433      C1434   1.400       .  A
C1433      C1438   1.405       .  A
C1434      C1435   1.396       .  A
C1435      C1436   1.396       .  A
C1435     Br1442   1.921       .  S
C1436      H1441   1.078       .  S
C1436      C1437   1.427       .  A
C1437      C1438   1.429       .  A
C1438     Br1439   1.921       .  S
C1443      H1450   1.082       .  S
C1443      C1444   1.422   1_545  A
C1443      C1448   1.404       .  A
C1444      C1445   1.438       .  A
C1445      C1446   1.406       .  A
C1445     Br1452   1.925       .  S
C1446      H1451   1.084       .  S
C1446      C1447   1.399   1_565  A
C1447      C1448   1.406       .  A
C1448     Br1449   1.918       .  S
C1453      H1460   1.079       .  S
C1453      C1454   1.427       .  A
C1453      C1458   1.412       .  A
C1454      C1455   1.430   1_545  A
C1455      C1456   1.405       .  A
C1455     Br1462   1.913       .  S
C1456      H1461   1.084       .  S
C1456      C1457   1.398   1_565  A
C1457      C1458   1.408       .  A
C1458     Br1459   1.919       .  S
C1463      H1470   1.080       .  S
C1463      C1464   1.417       .  A
C1463      C1468   1.419       .  A
C1464      C1465   1.439       .  A
C1465      C1466   1.383       .  A
C1465     Br1472   1.923       .  S
C1466      H1471   1.085       .  S
C1466      C1467   1.388       .  A
C1467      C1468   1.417       .  A
C1468     Br1469   1.916       .  S
C1473      H1480   1.076       .  S
C1473      C1474   1.438       .  A
C1473      C1478   1.390       .  A
C1474      C1475   1.436       .  A
C1475      C1476   1.411       .  A
C1475     Br1482   1.914       .  S
C1476      H1481   1.083       .  S
C1476      C1477   1.398       .  A
C1477      C1478   1.387       .  A
C1478     Br1479   1.923       .  S
C1483      H1490   1.082       .  S
C1483      C1484   1.431       .  A
C1483      C1488   1.378       .  A
C1484      C1485   1.431       .  A
C1485      C1486   1.413       .  A
C1485     Br1492   1.918       .  S
C1486      H1491   1.083       .  S
C1486      C1487   1.406       .  A
C1487      C1488   1.388       .  A
C1488     Br1489   1.924       .  S
C1493      H1500   1.081       .  S
C1493      C1494   1.426   1_556  A
C1493      C1498   1.419       .  A
C1494      C1495   1.450       .  A
C1495      C1496   1.391       .  A
C1495     Br1502   1.943       .  S
C1496      H1501   1.083       .  S
C1496      C1497   1.393   1_554  A
C1497      C1498   1.413       .  A
C1498     Br1499   1.916       .  S
C1503      H1510   1.092       .  S
C1503      C1504   1.427       .  A
C1503      C1508   1.385       .  A
C1504      C1505   1.427       .  A
C1505      C1506   1.415       .  A
C1505     Br1512   1.917       .  S
C1506      H1511   1.085       .  S
C1506      C1507   1.407       .  A
C1507      C1508   1.393       .  A
C1508     Br1509   1.922       .  S
C1513      H1520   1.082       .  S
C1513      C1514   1.426       .  A
C1513      C1518   1.389       .  A
C1514      C1515   1.428       .  A
C1515      C1516   1.409       .  A
C1515     Br1522   1.921       .  S
C1516      H1521   1.083       .  S
C1516      C1517   1.404       .  A
C1517      C1518   1.397       .  A
C1518     Br1519   1.922       .  S
C1523      H1530   1.085       .  S
C1523      C1524   1.389       .  A
C1523      C1528   1.393       .  A
C1524      C1525   1.408       .  A
C1525      C1526   1.412       .  A
C1525     Br1532   1.917       .  S
C1526      H1531   1.078       .  S
C1526      C1527   1.420       .  A
C1527      C1528   1.441       .  A
C1528     Br1529   1.928       .  S
C1533      H1540   1.085       .  S
C1533      C1534   1.387       .  A
C1533      C1538   1.385       .  A
C1534      C1535   1.414       .  A
C1535      C1536   1.420       .  A
C1535     Br1542   1.916       .  S
C1536      H1541   1.082       .  S
C1536      C1537   1.421       .  A
C1537      C1538   1.454       .  A
C1538     Br1539   1.946       .  S
C1543      H1550   1.085       .  S
C1543      C1544   1.386       .  A
C1543      C1548   1.398       .  A
C1544      C1545   1.406       .  A
C1545      C1546   1.413       .  A
C1545     Br1552   1.915       .  S
C1546      H1551   1.076       .  S
C1546      C1547   1.421       .  A
C1547      C1548   1.450       .  A
C1548     Br1549   1.931       .  S
C1553      H1560   1.082       .  S
C1553      C1554   1.411       .  A
C1553      C1558   1.419       .  A
C1554      C1555   1.414       .  A
C1555      C1556   1.392       .  A
C1555     Br1562   1.929       .  S
C1556      H1561   1.077       .  S
C1556      C1557   1.418       .  A
C1557      C1558   1.431       .  A
C1558     Br1559   1.922       .  S
C1563      H1570   1.080       .  S
C1563      C1564   1.424       .  A
C1563      C1568   1.387       .  A
C1564      C1565   1.429       .  A
C1565      C1566   1.416       .  A
C1565     Br1572   1.921       .  S
C1566      H1571   1.083       .  S
C1566      C1567   1.407       .  A
C1567      C1568   1.397       .  A
C1568     Br1569   1.923       .  S
C1573      H1580   1.077       .  S
C1573      C1574   1.433       .  A
C1573      C1578   1.392       .  A
C1574      C1575   1.432       .  A
C1575      C1576   1.408       .  A
C1575     Br1582   1.912       .  S
C1576      H1581   1.084       .  S
C1576      C1577   1.399       .  A
C1577      C1578   1.392       .  A
C1578     Br1579   1.923       .  S
C1583      H1590   1.082       .  S
C1583      C1584   1.424       .  A
C1583      C1588   1.419       .  A
C1584      C1585   1.449       .  A
C1585      C1586   1.395       .  A
C1585     Br1592   1.943       .  S
C1586      H1591   1.083       .  S
C1586      C1587   1.397       .  A
C1587      C1588   1.414       .  A
C1588     Br1589   1.917       .  S
C1593      H1600   1.076       .  S
C1593      C1594   1.425       .  A
C1593      C1598   1.397       .  A
C1594      C1595   1.431       .  A
C1595      C1596   1.406       .  A
C1595     Br1602   1.921       .  S
C1596      H1601   1.084       .  S
C1596      C1597   1.400       .  A
C1597      C1598   1.397       .  A
C1598     Br1599   1.920       .  S
C1603      H1610   1.076       .  S
C1603      C1604   1.421       .  A
C1603      C1608   1.393       .  A
C1604      C1605   1.433       .  A
C1605      C1606   1.403       .  A
C1605     Br1612   1.922       .  S
C1606      H1611   1.084       .  S
C1606      C1607   1.397       .  A
C1607      C1608   1.396       .  A
C1608     Br1609   1.920       .  S
C1613      H1620   1.084       .  S
C1613      C1614   1.396       .  A
C1613      C1618   1.398       .  A
C1614      C1615   1.408       .  A
C1615      C1616   1.411       .  A
C1615     Br1622   1.919       .  S
C1616      H1621   1.079       .  S
C1616      C1617   1.424       .  A
C1617      C1618   1.428       .  A
C1618     Br1619   1.907       .  S
C1623      H1630   1.084       .  S
C1623      C1624   1.387       .  A
C1623      C1628   1.391       .  A
C1624      C1625   1.407       .  A
C1625      C1626   1.408       .  A
C1625     Br1632   1.917       .  S
C1626      H1631   1.079       .  S
C1626      C1627   1.417       .  A
C1627      C1628   1.439       .  A
C1628     Br1629   1.926       .  S
C1633      H1640   1.085       .  S
C1633      C1634   1.384       .  A
C1633      C1638   1.386       .  A
C1634      C1635   1.411       .  A
C1635      C1636   1.419       .  A
C1635     Br1642   1.915       .  S
C1636      H1641   1.082       .  S
C1636      C1637   1.422       .  A
C1637      C1638   1.457       .  A
C1638     Br1639   1.941       .  S
C1643      H1650   1.085       .  S
C1643      C1644   1.386       .  A
C1643      C1648   1.391       .  A
C1644      C1645   1.409       .  A
C1645      C1646   1.414       .  A
C1645     Br1652   1.916       .  S
C1646      H1651   1.073       .  S
C1646      C1647   1.421       .  A
C1647      C1648   1.443       .  A
C1648     Br1649   1.927       .  S
C1653      H1660   1.081       .  S
C1653      C1654   1.417       .  A
C1653      C1658   1.420       .  A
C1654      C1655   1.441       .  A
C1655      C1656   1.384       .  A
C1655     Br1662   1.922       .  S
C1656      H1661   1.085       .  S
C1656      C1657   1.383       .  A
C1657      C1658   1.414       .  A
C1658     Br1659   1.915       .  S
C1663      H1670   1.063       .  S
C1663      C1664   1.426   1_545  A
C1663      C1668   1.389       .  A
C1664      C1665   1.438       .  A
C1665      C1666   1.413       .  A
C1665     Br1672   1.926       .  S
C1666      H1671   1.082       .  S
C1666      C1667   1.406       .  A
C1667      C1668   1.401   1_565  A
C1668     Br1669   1.929       .  S
C1673      H1680   1.083       .  S
C1673      C1674   1.427       .  A
C1673      C1678   1.394       .  A
C1674      C1675   1.435   1_545  A
C1675      C1676   1.412       .  A
C1675     Br1682   1.922       .  S
C1676      H1681   1.083       .  S
C1676      C1677   1.401   1_565  A
C1677      C1678   1.395       .  A
C1678     Br1679   1.920       .  S
C1683      H1690   1.085       .  S
C1683      C1684   1.390       .  A
C1683      C1688   1.389       .  A
C1684      C1685   1.412       .  A
C1685      C1686   1.417       .  A
C1685     Br1692   1.916       .  S
C1686      H1691   1.079       .  S
C1686      C1687   1.420       .  A
C1687      C1688   1.436       .  A
C1688     Br1689   1.924       .  S
C1693      H1700   1.083       .  S
C1693      C1694   1.414       .  A
C1693      C1698   1.402       .  A
C1694      C1695   1.442       .  A
C1695      C1696   1.401       .  A
C1695     Br1702   1.931       .  S
C1696      H1701   1.084       .  S
C1696      C1697   1.393       .  A
C1697      C1698   1.409       .  A
C1698     Br1699   1.920       .  S
C1703      H1710   1.079       .  S
C1703      C1704   1.423       .  A
C1703      C1708   1.387       .  A
C1704      C1705   1.429       .  A
C1705      C1706   1.419       .  A
C1705     Br1712   1.917       .  S
C1706      H1711   1.083       .  S
C1706      C1707   1.409       .  A
C1707      C1708   1.399       .  A
C1708     Br1709   1.925       .  S
C1713      H1720   1.085       .  S
C1713      C1714   1.384       .  A
C1713      C1718   1.388       .  A
C1714      C1715   1.406       .  A
C1715      C1716   1.405       .  A
C1715     Br1722   1.915       .  S
C1716      H1721   1.080       .  S
C1716      C1717   1.412       .  A
C1717      C1718   1.444       .  A
C1718     Br1719   1.931       .  S
C1723      H1730   1.083       .  S
C1723      C1724   1.403       .  A
C1723      C1728   1.408       .  A
C1724      C1725   1.400       .  A
C1725      C1726   1.396       .  A
C1725     Br1732   1.926       .  S
C1726      H1731   1.071       .  S
C1726      C1727   1.431       .  A
C1727      C1728   1.433       .  A
C1728     Br1729   1.924       .  S
C1733      H1740   1.089       .  S
C1733      C1734   1.402       .  A
C1733      C1738   1.408       .  A
C1734      C1735   1.395       .  A
C1735      C1736   1.391       .  A
C1735     Br1742   1.924       .  S
C1736      H1741   1.080       .  S
C1736      C1737   1.433       .  A
C1737      C1738   1.431       .  A
C1738     Br1739   1.915       .  S
C1743      H1750   1.083       .  S
C1743      C1744   1.402       .  A
C1743      C1748   1.418       .  A
C1744      C1745   1.400       .  A
C1745      C1746   1.388       .  A
C1745     Br1752   1.930       .  S
C1746      H1751   1.067       .  S
C1746      C1747   1.424       .  A
C1747      C1748   1.441       .  A
C1748     Br1749   1.922       .  S
