geometry optimzed in LAMMPS
_audit_creation_date              2020-11-30 
_audit_creation_method            'lammps2cif' 
_symmetry_space_group_name_H-M    'P1' 
_symmetry_Int_Tables_number       1 
_symmetry_cell_setting            triclinic 
loop_ 
_symmetry_equiv_pos_as_xyz 
  x,y,z 
_cell_length_a                    41.33600027 
_cell_length_b                    41.67404335418744 
_cell_length_c                    41.304424454750524 
_cell_angle_alpha                 89.53192705800339 
_cell_angle_beta                  90.46016115050342 
_cell_angle_gamma                 122.25615572171897 
loop_ 
_atom_site_label 
_atom_site_type_symbol 
_atom_site_fract_x 
_atom_site_fract_y 
_atom_site_fract_z 
_atom_site_charge 
In1        In  0.46773929  0.13084597  0.39816891     1.36900
C2          C  0.52994180  0.12674495  0.40063878     0.77700
O3          O  0.46373533  0.13095386  0.45197072    -0.60800
O4          O  0.42201374  0.08128539  0.42743718    -0.51700
C5          C  0.46420719  0.19229902  0.40123004     0.70300
O6          O  0.49519876  0.19326989  0.40334506    -0.46500
C7          C  0.44736430  0.11538637  0.33621779     0.75000
O8          O  0.53123191  0.15750565  0.40331773    -0.58400
O9          O  0.42775611  0.09199985  0.35839736    -0.48500
O10         O  0.49665269  0.09813065  0.39670243    -0.54800
C11         C  0.43507241  0.09762145  0.45433800     0.85200
O12         O  0.43475344  0.15941199  0.39795745    -0.56700
O13         O  0.47682212  0.14537173  0.34597956    -0.60000
In14       In  0.72360435  0.10685000  0.40376653     1.36900
C15         C  0.72025530  0.07887094  0.34446997     0.77700
O16         O  0.66094731  0.08198234  0.41201377    -0.60800
O17         O  0.69510440  0.13972712  0.39800604    -0.51700
C18         C  0.72319412  0.07468167  0.46031297     0.70300
O19         O  0.71912926  0.05856983  0.43349363    -0.46500
C20         C  0.78842211  0.17452207  0.40458732     0.75000
O21         O  0.75095433  0.09857318  0.36001272    -0.58400
O22         O  0.75602166  0.16993691  0.39984891    -0.48500
O23         O  0.69110646  0.07084041  0.36044976    -0.54800
C24         C  0.66211552  0.11213284  0.40506799     0.85200
O25         O  0.72786897  0.10695861  0.45782199    -0.56700
O26         O  0.78760169  0.14396251  0.40823221    -0.60000
In27       In  0.39784033  0.99570509  0.63790061     1.36900
C28         C  0.40805144  0.02170821  0.69859316     0.77700
O29         O  0.33542872  0.96407447  0.64872645    -0.60800
O30         O  0.36067925  0.93239316  0.63883013    -0.51700
C31         C  0.39846190  0.02960869  0.58212761     0.70300
O32         O  0.41261676  0.04767773  0.60808519    -0.46500
C33         C  0.45589211  0.98675796  0.62908983     0.75000
O34         O  0.38352799  0.02120060  0.67985172    -0.58400
O35         O  0.42193711  0.95925540  0.63289555    -0.48500
O36         O  0.42859436  0.01183261  0.68531428    -0.54800
C37         C  0.33077503  0.93172938  0.64614781     0.85200
O38         O  0.38218846  0.99427294  0.58546129    -0.56700
O39         O  0.45978964  0.01899410  0.62912039    -0.60000
In40       In  0.64920619  0.97020606  0.64142868     1.36900
C41         C  0.65885268  0.98902831  0.70372525     0.77700
O42         O  0.62187428  0.00341530  0.63553335    -0.60800
O43         O  0.58688744  0.94346093  0.63026682    -0.51700
C44         C  0.68408500  0.00175678  0.58553344     0.70300
O45         O  0.69506306  0.01963894  0.61206387    -0.46500
C46         C  0.65593240  0.91074375  0.64672988     0.75000
O47         O  0.68631835  0.00527379  0.68386948    -0.58400
O48         O  0.62443484  0.90768710  0.64052325    -0.48500
O49         O  0.62742352  0.96400367  0.69144007    -0.54800
C50         C  0.58885057  0.97482797  0.63027469     0.85200
O51         O  0.65670872  0.96781894  0.58838618    -0.56700
O52         O  0.68386809  0.94446072  0.64988186    -0.60000
In53       In  0.45794378  0.11929801  0.13536931     1.36900
C54         C  0.44169214  0.10913939  0.19791756     0.77700
O55         O  0.48518678  0.08555804  0.14179051    -0.60800
O56         O  0.52044241  0.14343915  0.12834739    -0.51700
C57         C  0.42549582  0.08533293  0.07957804     0.70300
O58         O  0.41281026  0.06892216  0.10661107    -0.46500
C59         C  0.45521870  0.18121504  0.13135036     0.75000
O60         O  0.41896069  0.08495391  0.17739876    -0.58400
O61         O  0.48568453  0.18137752  0.12835320    -0.48500
O62         O  0.47206391  0.13653669  0.18622845    -0.54800
C63         C  0.51845644  0.11290446  0.13533918     0.85200
O64         O  0.45359233  0.11897717  0.08166687    -0.56700
O65         O  0.42553071  0.14861507  0.13551052    -0.60000
In66       In  0.71492598  0.09944420  0.14632506     1.36900
C67         C  0.71228347  0.07201375  0.20586119     0.77700
O68         O  0.77814958  0.13813159  0.13974926    -0.60800
O69         O  0.74719525  0.16080404  0.15915344    -0.51700
C70         C  0.71374850  0.06870592  0.08924025     0.70300
O71         O  0.70966519  0.05164982  0.11577873    -0.46500
C72         C  0.65406644  0.10478676  0.14147636     0.75000
O73         O  0.74128229  0.08522512  0.18798387    -0.58400
O74         O  0.68785511  0.13329834  0.14119720    -0.48500
O75         O  0.68388812  0.06949304  0.19197151    -0.54800
C76         C  0.77911887  0.16707402  0.15005130     0.85200
O77         O  0.71850258  0.10089809  0.09243036    -0.56700
O78         O  0.65165743  0.07331301  0.14375705    -0.60000
In79       In  0.39070458  0.98523689  0.89731221     1.36900
C80         C  0.40172857  0.01281068  0.83694865     0.77700
O81         O  0.45254038  0.01123426  0.90895947    -0.60800
O82         O  0.41715677  0.95116965  0.90747775    -0.51700
C83         C  0.39013296  0.01796652  0.95239480     0.70300
O84         O  0.40383636  0.03646231  0.92642975    -0.46500
C85         C  0.32286778  0.92182833  0.89027085     0.75000
O86         O  0.38114321  0.01669128  0.85690862    -0.58400
O87         O  0.35379967  0.92272016  0.89056751    -0.48500
O88         O  0.41778805  0.99677249  0.84849486    -0.54800
C89         C  0.45037907  0.97991169  0.91159070     0.85200
O90         O  0.37511892  0.98273751  0.94938342    -0.56700
O91         O  0.32688080  0.95388684  0.89311274    -0.60000
In92       In  0.64968683  0.97315058  0.90525055     1.36900
C93         C  0.58799187  0.97594839  0.91553949     0.77700
O94         O  0.66034752  0.97131199  0.95796899    -0.60800
O95         O  0.69384176  0.02420333  0.93389810    -0.51700
C96         C  0.65712504  0.91392240  0.90062407     0.70300
O97         O  0.62561472  0.91058432  0.90710542    -0.46500
C98         C  0.65999810  0.99139692  0.84279677     0.75000
O99         O  0.58722800  0.94518555  0.91631122    -0.58400
O100        O  0.68723884  0.00771127  0.86301509    -0.48500
O101        O  0.62061060  0.00502562  0.91012396    -0.54800
C102        C  0.68518841  0.00621568  0.96048660     0.85200
O103        O  0.68465783  0.94773742  0.89689466    -0.56700
O104        O  0.62815608  0.96725778  0.85493489    -0.60000
In105      In  0.39049861  0.45842786  0.89759552     1.36900
C106        C  0.38306595  0.44137979  0.83453803     0.77700
O107        O  0.32668522  0.42750483  0.90244256    -0.60800
O108        O  0.35970500  0.48761551  0.90669808    -0.51700
C109        C  0.39072179  0.42640376  0.95376863     0.70300
O110        O  0.38540894  0.40952004  0.92702705    -0.46500
C111        C  0.46036775  0.52042353  0.89757206     0.75000
O112        O  0.39287033  0.42515062  0.85485884    -0.58400
O113        O  0.43029609  0.52074060  0.90077802    -0.48500
O114        O  0.37648120  0.46483334  0.84679295    -0.54800
C115        C  0.32690752  0.45763730  0.90701978     0.85200
O116        O  0.39540692  0.45870922  0.95115271    -0.56700
O117        O  0.45468001  0.48770667  0.89429250    -0.60000
In118      In  0.67830401  0.72294104  0.89740556     1.36900
C119        C  0.70992811  0.72360542  0.84066360     0.77700
O120        O  0.64158864  0.66040030  0.90784977    -0.60800
O121        O  0.61585682  0.68822392  0.88690211    -0.51700
C122        C  0.70561963  0.72444683  0.95661603     0.70300
O123        O  0.72178259  0.72308307  0.93129090    -0.46500
C124        C  0.67045046  0.78227054  0.89490984     0.75000
O125        O  0.68673654  0.69378881  0.85571341    -0.58400
O126        O  0.64338131  0.74887033  0.88880124    -0.48500
O127        O  0.72004214  0.75335484  0.85628315    -0.54800
C128        C  0.61140180  0.65757268  0.89739726     0.85200
O129        O  0.67672630  0.72636365  0.95120072    -0.56700
O130        O  0.70176252  0.78519500  0.90174863    -0.60000
In131      In  0.72804840  0.66144625  0.14419604     1.36900
C132        C  0.71965234  0.67663076  0.20482582     0.77700
O133        O  0.66462526  0.62879261  0.13643206    -0.60800
O134        O  0.69336017  0.59924353  0.13452765    -0.51700
C135        C  0.73261213  0.69590789  0.08820428     0.70300
O136        O  0.71875607  0.70092244  0.11338931    -0.46500
C137        C  0.79171983  0.66128958  0.15227780     0.75000
O138        O  0.70479609  0.64377955  0.19356952    -0.58400
O139        O  0.75971504  0.63190138  0.14596517    -0.48500
O140        O  0.73877625  0.70295865  0.18456417    -0.54800
C141        C  0.66183728  0.59732416  0.13313611     0.85200
O142        O  0.74654578  0.67576079  0.09271285    -0.56700
O143        O  0.79119079  0.69127111  0.15401259    -0.60000
In144      In  0.45421781  0.38365387  0.13470537     1.36900
C145        C  0.44057774  0.38616131  0.19755254     0.77700
O146        O  0.42165384  0.31972466  0.13758922    -0.60800
O147        O  0.48103381  0.35005976  0.12754913    -0.51700
C148        C  0.42067463  0.38702268  0.08024859     0.70300
O149        O  0.41301961  0.39461022  0.10764421    -0.46500
C150        C  0.51943297  0.45070691  0.12874734     0.75000
O151        O  0.41381321  0.37315336  0.17684306    -0.58400
O152        O  0.51757252  0.41952788  0.12764061    -0.48500
O153        O  0.47271035  0.39635995  0.18595171    -0.54800
C154        C  0.45076849  0.31815331  0.13189721     0.85200
O155        O  0.44347308  0.37574854  0.08137445    -0.56700
O156        O  0.48744902  0.44735763  0.13229958    -0.60000
In157      In  0.39186889  0.46560738  0.63303838     1.36900
C158        C  0.38415330  0.44644960  0.69548210     0.77700
O159        O  0.45596712  0.49501328  0.63519051    -0.60800
O160        O  0.43189612  0.52860809  0.63031727    -0.51700
C161        C  0.39271265  0.43256389  0.57853341     0.70300
O162        O  0.39406700  0.41991149  0.60610901    -0.46500
C163        C  0.32617120  0.46183568  0.62642088     0.75000
O164        O  0.38873148  0.42746862  0.67431211    -0.58400
O165        O  0.35834268  0.49205307  0.62252097    -0.48500
O166        O  0.38430443  0.47480371  0.68460053    -0.54800
C167        C  0.46189085  0.52791264  0.63290902     0.85200
O168        O  0.38965457  0.46102932  0.57926300    -0.56700
O169        O  0.32771433  0.43286681  0.63241627    -0.60000
In170      In  0.68403779  0.72497091  0.64449091     1.36900
C171        C  0.71242300  0.72448849  0.70287158     0.77700
O172        O  0.70915428  0.78775892  0.64382689    -0.60800
O173        O  0.64968506  0.75093353  0.65232407    -0.51700
C174        C  0.71497572  0.72804888  0.58709886     0.70300
O175        O  0.72544967  0.71974209  0.61293351    -0.46500
C176        C  0.61527653  0.66194665  0.63916369     0.75000
O177        O  0.68489886  0.69529687  0.69000972    -0.58400
O178        O  0.62046575  0.69332727  0.64780942    -0.48500
O179        O  0.72794002  0.75296627  0.68442780    -0.54800
C180        C  0.67757473  0.78463016  0.64927316     0.85200
O181        O  0.69011654  0.73624433  0.59120655    -0.56700
O182        O  0.64574910  0.66289686  0.63340213    -0.60000
In183      In  0.73387505  0.66027492  0.40263626     1.36900
C184        C  0.72429862  0.67625910  0.34229010     0.77700
O185        O  0.79694316  0.69232439  0.39377853    -0.60800
O186        O  0.76791218  0.63284358  0.40076108    -0.51700
C187        C  0.73983489  0.69541055  0.45787793     0.70300
O188        O  0.72792359  0.70217864  0.43205993    -0.46500
C189        C  0.66809812  0.59591580  0.41375763     0.75000
O190        O  0.74329238  0.70206323  0.36280961    -0.58400
O191        O  0.69963388  0.59800706  0.41188626    -0.48500
O192        O  0.70969675  0.64308772  0.35312734    -0.54800
C193        C  0.79936902  0.66347389  0.39578183     0.85200
O194        O  0.75009694  0.67210650  0.45464316    -0.56700
O195        O  0.67067197  0.62743275  0.41120137    -0.60000
In196      In  0.45562405  0.38981968  0.39978939     1.36900
C197        C  0.43972596  0.39112690  0.33701200     0.77700
O198        O  0.48920105  0.45310215  0.40513712    -0.60800
O199        O  0.51835807  0.42384104  0.40803709    -0.51700
C200        C  0.42246459  0.39146692  0.45415915     0.70300
O201        O  0.41406107  0.39919331  0.42689515    -0.46500
C202        C  0.45575349  0.32649149  0.40086079     0.75000
O203        O  0.41349543  0.37180517  0.35728762    -0.58400
O204        O  0.48577797  0.35894753  0.40320355    -0.48500
O205        O  0.47251529  0.41031866  0.34944135    -0.54800
C206        C  0.52068017  0.45528290  0.40912064     0.85200
O207        O  0.44557318  0.38064060  0.45274786    -0.56700
O208        O  0.42534306  0.32655175  0.39831876    -0.60000
In209      In  0.12704866  0.46768938  0.64997119     1.36900
C210        C  0.12288504  0.52913164  0.64973966     0.77700
O211        O  0.12709566  0.46619062  0.59617161    -0.60800
O212        O  0.07683600  0.42384468  0.62017753    -0.51700
C213        C  0.18742951  0.46252252  0.64069403     0.70300
O214        O  0.18861515  0.49337807  0.63824090    -0.46500
C215        C  0.11463599  0.44823128  0.71245879     0.75000
O216        O  0.15413702  0.53061205  0.65146443    -0.58400
O217        O  0.09062778  0.42733001  0.69100072    -0.48500
O218        O  0.09365413  0.49597523  0.64817431    -0.54800
C219        C  0.09355411  0.43773312  0.59342846     0.85200
O220        O  0.15508337  0.43429047  0.64844314    -0.56700
O221        O  0.14308830  0.47841545  0.70171147    -0.60000
In222      In  0.11522110  0.72794748  0.65234827     1.36900
C223        C  0.08143374  0.72476711  0.70854154     0.77700
O224        O  0.09050191  0.66653456  0.64142203    -0.60800
O225        O  0.14394307  0.69677081  0.66562075    -0.51700
C226        C  0.09025529  0.72985019  0.59294760     0.70300
O227        O  0.07124439  0.72638691  0.61797610    -0.46500
C228        C  0.18392893  0.79064957  0.65406504     0.75000
O229        O  0.07067486  0.69641463  0.69076638    -0.58400
O230        O  0.17871030  0.75807229  0.65746698    -0.48500
O231        O  0.10715542  0.75548519  0.69608699    -0.54800
C232        C  0.11811592  0.66566411  0.65359305     0.85200
O233        O  0.12179314  0.73325649  0.59877643    -0.56700
O234        O  0.15367180  0.79088033  0.65030897    -0.60000
In235      In  0.99165260  0.39214953  0.40864279     1.36900
C236        C  0.00523793  0.38736838  0.34671233     0.77700
O237        O  0.96317887  0.32854891  0.40956130    -0.60800
O238        O  0.92880921  0.35210842  0.41357360    -0.51700
C239        C  0.02590273  0.39835820  0.46522322     0.70300
O240        O  0.04262341  0.40274738  0.43851355    -0.46500
C241        C  0.99467245  0.45768756  0.40898015     0.75000
O242        O  0.02906220  0.39164170  0.36838811    -0.58400
O243        O  0.96427014  0.42596201  0.41349870    -0.48500
O244        O  0.97643736  0.38692317  0.35696011    -0.54800
C245        C  0.92983368  0.32242905  0.41168221     0.85200
O246        O  0.99169241  0.38935356  0.46244759    -0.56700
O247        O  0.02373606  0.45578950  0.40432199    -0.60000
In248      In  0.00434612  0.66563122  0.40402177     1.36900
C249        C  0.03229832  0.68803923  0.34469332     0.77700
O250        O  0.03424753  0.63399606  0.41011013    -0.60800
O251        O  0.97367588  0.60257193  0.40680302    -0.51700
C252        C  0.03152148  0.69568221  0.46230924     0.70300
O253        O  0.05271462  0.70556415  0.43762283    -0.46500
C254        C  0.94010925  0.66494567  0.39692815     0.75000
O255        O  0.03922949  0.71192800  0.36658504    -0.58400
O256        O  0.94075201  0.63545486  0.40213819    -0.48500
O257        O  0.01244336  0.65400704  0.35365025    -0.54800
C258        C  0.00363807  0.60165775  0.40940320     0.85200
O259        O  0.99691233  0.67146073  0.45655542    -0.56700
O260        O  0.97273293  0.69510851  0.39546043    -0.60000
In261      In  0.12674540  0.46359467  0.91389724     1.36900
C262        C  0.11368544  0.44576090  0.85134860     0.77700
O263        O  0.09325955  0.49136788  0.91011579    -0.60800
O264        O  0.15280738  0.52643206  0.91872357    -0.51700
C265        C  0.09238274  0.43108304  0.96960329     0.70300
O266        O  0.07737116  0.41675804  0.94245828    -0.46500
C267        C  0.18795281  0.45891132  0.91750712     0.75000
O268        O  0.08860164  0.42605784  0.87246911    -0.58400
O269        O  0.18960580  0.48993873  0.92026186    -0.48500
O270        O  0.14388800  0.47389892  0.86251037    -0.54800
C271        C  0.12156825  0.52455507  0.91451755     0.85200
O272        O  0.12492515  0.46113427  0.96776365    -0.56700
O273        O  0.15448772  0.43008491  0.91471911    -0.60000
In274      In  0.10742201  0.71917195  0.90326296     1.36900
C275        C  0.07595442  0.71414205  0.84518918     0.77700
O276        O  0.14288935  0.78236694  0.89965660    -0.60800
O277        O  0.16995712  0.75162304  0.89356797    -0.51700
C278        C  0.08051604  0.71967690  0.96168008     0.70300
O279        O  0.05909037  0.70636237  0.93707568    -0.46500
C280        C  0.11310557  0.65909463  0.91037602     0.75000
O281        O  0.08414555  0.69094421  0.85565960    -0.58400
O282        O  0.14178781  0.69224909  0.90642719    -0.48500
O283        O  0.08118312  0.73887049  0.86553047    -0.54800
C284        C  0.17356389  0.78362098  0.89441292     0.85200
O285        O  0.11533743  0.73397683  0.95567886    -0.56700
O286        O  0.08140471  0.65692029  0.91087262    -0.60000
In287      In  0.97926871  0.38579684  0.14708300     1.36900
C288        C  0.99622660  0.38310019  0.20894850     0.77700
O289        O  0.01178993  0.44909613  0.15010798    -0.60800
O290        O  0.95319223  0.42041450  0.13734244    -0.51700
C291        C  0.01267427  0.38849593  0.09161713     0.70300
O292        O  0.02837434  0.39162204  0.11882042    -0.46500
C293        C  0.91762025  0.31642704  0.14578764     0.75000
O294        O  0.01977510  0.38925320  0.18673517    -0.58400
O295        O  0.91607520  0.34580593  0.14774821    -0.48500
O296        O  0.96570218  0.37991483  0.19929966    -0.54800
C297        C  0.98377498  0.45182780  0.14250758     0.85200
O298        O  0.97959432  0.38285399  0.09317130    -0.56700
O299        O  0.95101743  0.32276657  0.14370876    -0.60000
In300      In  0.99431303  0.65948826  0.15056957     1.36900
C301        C  0.98971969  0.59406327  0.14330147     0.77700
O302        O  0.98632771  0.66241226  0.09753516    -0.60800
O303        O  0.04180707  0.69923874  0.11671716    -0.51700
C304        C  0.93177211  0.66157358  0.15802889     0.70300
O305        O  0.93172219  0.63138219  0.16105958    -0.46500
C306        C  0.02667425  0.68487598  0.20853774     0.75000
O307        O  0.96064879  0.59639689  0.14644511    -0.58400
O308        O  0.02697036  0.70680776  0.18717161    -0.48500
O309        O  0.02124699  0.62565702  0.14354727    -0.54800
C310        C  0.02065037  0.68748905  0.09181143     0.85200
O311        O  0.96409048  0.69052576  0.15186743    -0.56700
O312        O  0.01204227  0.65119546  0.19939169    -0.60000
C313        C  0.98614233  0.48862121  0.14045998    -0.00100
C314        C  0.95205506  0.48831277  0.13817462    -0.11900
C315        C  0.95233916  0.52206346  0.13844767     0.02200
C316        C  0.98749445  0.55738916  0.14062483    -0.00200
C317        C  0.02166125  0.55772170  0.14159831    -0.11900
C318        C  0.02134567  0.52396593  0.14169071     0.02100
H319        H  0.92481232  0.46146418  0.13698342     0.15000
H320        H  0.04891429  0.58452403  0.14303540     0.15000
C321        C  0.05768365  0.52675143  0.14332098     0.36700
C322        C  0.91597159  0.51922009  0.13705838     0.36600
N323        N  0.08681078  0.52901412  0.14472306    -0.43700
N324        N  0.88678341  0.51686057  0.13608678    -0.43700
C325        C  0.06591444  0.71679789  0.99503776    -0.00100
C326        C  0.02622575  0.69718327  0.99984923    -0.11900
C327        C  0.01071533  0.68888711  0.03105817     0.02200
C328        C  0.03521124  0.70037892  0.05845790    -0.00200
C329        C  0.07487805  0.72219503  0.05365919    -0.11900
C330        C  0.09040110  0.73036454  0.02248923     0.02100
H331        H  0.00704343  0.68705487  0.97913905     0.15000
H332        H  0.09404040  0.73162051  0.07438152     0.15000
C333        C  0.13157804  0.75141683  0.01986134     0.36700
C334        C  0.96955110  0.66789133  0.03392108     0.36600
N335        N  0.16459617  0.76816987  0.01804093    -0.43700
N336        N  0.93655801  0.65106370  0.03607967    -0.43700
C337        C  0.07279765  0.41536354  0.00106602    -0.00100
C338        C  0.03278486  0.39113610  0.00142401    -0.11900
C339        C  0.01248936  0.38045898  0.03064733     0.02200
C340        C  0.03241372  0.39362280  0.06041065    -0.00200
C341        C  0.07249856  0.41540209  0.06013057    -0.11900
C342        C  0.09275151  0.42657952  0.03098282     0.02100
H343        H  0.01707828  0.38187139  0.97874289     0.15000
H344        H  0.08816606  0.42540424  0.08278986     0.15000
C345        C  0.13395495  0.45023920  0.03281555     0.36700
C346        C  0.97127950  0.35646185  0.02920930     0.36600
N347        N  0.16694924  0.46927989  0.03460633    -0.43700
N348        N  0.93826119  0.33725993  0.02793026    -0.43700
C349        C  0.11864929  0.55859947  0.91452617    -0.00100
C350        C  0.15197964  0.59449068  0.91947318    -0.11900
C351        C  0.15095102  0.62757063  0.91901043     0.02200
C352        C  0.11596219  0.62518032  0.91312157    -0.00200
C353        C  0.08259343  0.58930999  0.90885953    -0.11900
C354        C  0.08352795  0.55626538  0.90955787     0.02100
H355        H  0.17907914  0.59682860  0.92377172     0.15000
H356        H  0.05550408  0.58698491  0.90448046     0.15000
C357        C  0.04780673  0.52056753  0.90496603     0.36700
C358        C  0.18607217  0.66327203  0.92549934     0.36600
N359        N  0.01908770  0.49202582  0.90134076    -0.43700
N360        N  0.21419607  0.69180717  0.93090242    -0.43700
C361        C  0.04383034  0.69754011  0.31053717    -0.00100
C362        C  0.03542637  0.72169376  0.29379804    -0.11900
C363        C  0.03300989  0.72085793  0.25981421     0.02200
C364        C  0.03970717  0.69588903  0.24237067    -0.00200
C365        C  0.05247810  0.67524623  0.25913755    -0.11900
C366        C  0.05452974  0.67583295  0.29289312     0.02100
H367        H  0.02694425  0.73826433  0.30726623     0.15000
H368        H  0.05832135  0.65647486  0.24593929     0.15000
C369        C  0.06522885  0.65191485  0.30904813     0.36700
C370        C  0.01912230  0.74225748  0.24395510     0.36600
N371        N  0.07365960  0.63274043  0.32213771    -0.43700
N372        N  0.00776491  0.75924188  0.23129510    -0.43700
C373        C  0.00833534  0.38171499  0.31189401    -0.00100
C374        C  0.97476936  0.35369850  0.29650740    -0.11900
C375        C  0.97154725  0.35218380  0.26288561     0.02200
C376        C  0.00243472  0.37921977  0.24372818    -0.00200
C377        C  0.03746603  0.40507744  0.25888517    -0.11900
C378        C  0.04061697  0.40652917  0.29294520     0.02100
H379        H  0.95009740  0.33396955  0.31096660     0.15000
H380        H  0.06145039  0.42573805  0.24431956     0.15000
C381        C  0.07594706  0.43550251  0.30777819     0.36700
C382        C  0.93560625  0.32323363  0.24870146     0.36600
N383        N  0.10431829  0.45872655  0.31964977    -0.43700
N384        N  0.90679295  0.30009428  0.23738459    -0.43700
C385        C  0.99639107  0.49422166  0.40935062    -0.00100
C386        C  0.03204161  0.52812208  0.41359620    -0.11900
C387        C  0.03522982  0.56334061  0.41467602     0.02200
C388        C  0.00231782  0.56528823  0.41040145    -0.00200
C389        C  0.96671726  0.53134504  0.40618222    -0.11900
C390        C  0.96337662  0.49612475  0.40599674     0.02100
H391        H  0.05754941  0.52709659  0.41678580     0.15000
H392        H  0.94110393  0.53218199  0.40297550     0.15000
C393        C  0.92558497  0.46265062  0.40209182     0.36700
C394        C  0.07242779  0.59659616  0.42129555     0.36600
N395        N  0.89514654  0.43598850  0.39919219    -0.43700
N396        N  0.10221897  0.62310250  0.42698923    -0.43700
C397        C  0.06861189  0.72117468  0.74261635    -0.00100
C398        C  0.05260816  0.68548451  0.75752724    -0.11900
C399        C  0.05128821  0.68184696  0.79122966     0.02200
C400        C  0.06529220  0.71431381  0.81083856    -0.00200
C401        C  0.07607664  0.74908693  0.79596871    -0.11900
C402        C  0.07812060  0.75285947  0.76208358     0.02100
H403        H  0.04425275  0.66065150  0.74295962     0.15000
H404        H  0.08609842  0.77411452  0.81075364     0.15000
C405        C  0.09180033  0.78983427  0.74817312     0.36700
C406        C  0.03796981  0.64481163  0.80487077     0.36600
N407        N  0.10267142  0.81953189  0.73719466    -0.43700
N408        N  0.02757857  0.61514823  0.81567880    -0.43700
C409        C  0.07609288  0.72756703  0.55938938    -0.00100
C410        C  0.03657874  0.70895077  0.55392948    -0.11900
C411        C  0.02142895  0.70001560  0.52247931     0.02200
C412        C  0.04612588  0.70967075  0.49556219    -0.00200
C413        C  0.08579606  0.73095860  0.50096263    -0.11900
C414        C  0.10090366  0.74011351  0.53240460     0.02100
H415        H  0.01725085  0.69978122  0.57436752     0.15000
H416        H  0.10519056  0.73947690  0.48063101     0.15000
C417        C  0.14200789  0.76236725  0.53614649     0.36700
C418        C  0.98037450  0.68026094  0.51889384     0.36600
N419        N  0.17493553  0.78036138  0.53914426    -0.43700
N420        N  0.94747109  0.66449095  0.51610680    -0.43700
C421        C  0.11138246  0.43918841  0.74758553    -0.00100
C422        C  0.07668253  0.42532605  0.76412302    -0.11900
C423        C  0.07572319  0.42465320  0.79830988     0.02200
C424        C  0.10986224  0.43774964  0.81612259    -0.00200
C425        C  0.14350635  0.44822982  0.79938439    -0.11900
C426        C  0.14458329  0.44908407  0.76564595     0.02100
H427        H  0.05098229  0.41749655  0.75049298     0.15000
H428        H  0.16970339  0.45738850  0.81280681     0.15000
C429        C  0.18066514  0.46140236  0.75014852     0.36700
C430        C  0.04036896  0.41362339  0.81439820     0.36600
N431        N  0.20955788  0.47139707  0.73770444    -0.43700
N432        N  0.01211587  0.40493153  0.82741504    -0.43700
C433        C  0.07582606  0.42324098  0.56104159    -0.00100
C434        C  0.09963918  0.43592157  0.53360305    -0.11900
C435        C  0.08440930  0.42679179  0.50214462     0.02200
C436        C  0.04436127  0.40449245  0.49756967    -0.00200
C437        C  0.02070659  0.39041309  0.52501610    -0.11900
C438        C  0.03591468  0.39946020  0.55643784     0.02100
H439        H  0.13040247  0.45398528  0.53665006     0.15000
H440        H  0.98989119  0.37305637  0.52195724     0.15000
C441        C  0.00958007  0.38553887  0.58325390     0.36700
C442        C  0.11054542  0.44247299  0.47520741     0.36600
N443        N  0.98836082  0.37439807  0.60468064    -0.43700
N444        N  0.13155619  0.45512234  0.45366774    -0.43700
C445        C  0.11986255  0.63095759  0.65323551    -0.00100
C446        C  0.08933313  0.59783095  0.63914208    -0.11900
C447        C  0.08965562  0.56444907  0.63747650     0.02200
C448        C  0.12104137  0.56366274  0.65021940    -0.00200
C449        C  0.15166988  0.59676100  0.66406590    -0.11900
C450        C  0.15135470  0.63011901  0.66583126     0.02100
H451        H  0.06511110  0.59798594  0.62906398     0.15000
H452        H  0.17592367  0.59650327  0.67396454     0.15000
C453        C  0.18383515  0.66277003  0.68077666     0.36700
C454        C  0.05806717  0.53204129  0.62142747     0.36600
N455        N  0.20993290  0.68880517  0.69282754    -0.43700
N456        N  0.03278468  0.50621081  0.60840956    -0.43700
C457        C  0.90410506  0.66443798  0.39372979    -0.00100
C458        C  0.90544994  0.69863932  0.39698670    -0.11900
C459        C  0.87196708  0.69934036  0.39663581     0.02200
C460        C  0.83598652  0.66510515  0.39332265    -0.00200
C461        C  0.83479056  0.63112648  0.38875443    -0.11900
C462        C  0.86831496  0.63053634  0.38853990     0.02100
H463        H  0.93275009  0.72495192  0.40058726     0.15000
H464        H  0.80747409  0.60476554  0.38535353     0.15000
C465        C  0.86503231  0.59487365  0.38215982     0.36700
C466        C  0.87557876  0.73550004  0.40073912     0.36600
N467        N  0.86250189  0.56639770  0.37679789    -0.43700
N468        N  0.87847822  0.76449462  0.40392563    -0.43700
C469        C  0.63080625  0.55944090  0.41673500    -0.00100
C470        C  0.59730696  0.56016085  0.41942677    -0.11900
C471        C  0.56104978  0.52669520  0.41812733     0.02200
C472        C  0.55782728  0.49148768  0.41374342    -0.00200
C473        C  0.59131860  0.49064928  0.41282202    -0.11900
C474        C  0.62747973  0.52394896  0.41441053     0.02100
H475        H  0.59934173  0.58707424  0.42188235     0.15000
H476        H  0.58939910  0.46382043  0.41003126     0.15000
C477        C  0.66036466  0.52046382  0.41262688     0.36700
C478        C  0.52793402  0.52959351  0.42134273     0.36600
N479        N  0.68658721  0.51746459  0.41123254    -0.43700
N480        N  0.50147091  0.53202012  0.42406589    -0.43700
C481        C  0.72833856  0.72623837  0.55425606    -0.00100
C482        C  0.71573767  0.73811248  0.52764054    -0.11900
C483        C  0.72114745  0.73068460  0.49578308     0.02200
C484        C  0.73976777  0.71105103  0.49002790    -0.00200
C485        C  0.75524822  0.70217206  0.51650879    -0.11900
C486        C  0.74967290  0.70940714  0.54833556     0.02100
H487        H  0.69994177  0.75174550  0.53169308     0.15000
H488        H  0.77027051  0.68773853  0.51251470     0.15000
C489        C  0.76429610  0.69705981  0.57419974     0.36700
C490        C  0.70531755  0.74170097  0.46986639     0.36600
N491        N  0.77604165  0.68696385  0.59475731    -0.43700
N492        N  0.69250311  0.75053946  0.44921439    -0.43700
C493        C  0.22149480  0.46022401  0.63471728    -0.00100
C494        C  0.25434978  0.49228936  0.62192470    -0.11900
C495        C  0.28808058  0.49281080  0.61725002     0.02200
C496        C  0.28975073  0.46085130  0.62605565    -0.00200
C497        C  0.25635808  0.42808360  0.63732591    -0.11900
C498        C  0.22238530  0.42737765  0.64153887     0.02100
H499        H  0.25387393  0.51737211  0.61566001     0.15000
H500        H  0.25699042  0.40314241  0.64380392     0.15000
C501        C  0.18935723  0.39277385  0.65349283     0.36700
C502        C  0.32031344  0.52663795  0.60333682     0.36600
N503        N  0.16287363  0.36494659  0.66292960    -0.43700
N504        N  0.34601863  0.55373606  0.59206479    -0.43700
C505        C  0.39569806  0.41673623  0.54748630    -0.00100
C506        C  0.38129025  0.42388821  0.51923930    -0.11900
C507        C  0.38771481  0.41418551  0.48859862     0.02200
C508        C  0.40902515  0.39682397  0.48576172    -0.00200
C509        C  0.42170330  0.38793538  0.51421953    -0.11900
C510        C  0.41549965  0.39786212  0.54480261     0.02100
H511        H  0.36583137  0.43818850  0.52100081     0.15000
H512        H  0.43818159  0.37468508  0.51260062     0.15000
C513        C  0.43246397  0.39095960  0.57256569     0.36700
C514        C  0.37348095  0.42396699  0.46063234     0.36600
N515        N  0.44634999  0.38557083  0.59467377    -0.43700
N516        N  0.36211695  0.43190434  0.43823919    -0.43700
C517        C  0.50083790  0.56265731  0.63352387    -0.00100
C518        C  0.53241630  0.55950774  0.62736254    -0.11900
C519        C  0.56986453  0.59132122  0.62836049     0.02200
C520        C  0.57637885  0.62725516  0.63637835    -0.00200
C521        C  0.54470843  0.63037835  0.64221231    -0.11900
C522        C  0.50730611  0.59876985  0.64060130     0.02100
H523        H  0.52785307  0.53205567  0.62147808     0.15000
H524        H  0.54907264  0.65773455  0.64815671     0.15000
C525        C  0.47634377  0.60438080  0.64695152     0.36700
C526        C  0.60079094  0.58605123  0.62088347     0.36600
N527        N  0.45152912  0.60890249  0.65189593    -0.43700
N528        N  0.62560305  0.58191874  0.61473113    -0.43700
C529        C  0.43613457  0.38996825  0.23271160    -0.00100
C530        C  0.40415056  0.36149132  0.24979221    -0.11900
C531        C  0.40315273  0.36185991  0.28395188     0.02200
C532        C  0.43448496  0.39142746  0.30133302    -0.00200
C533        C  0.46481863  0.42111358  0.28385642    -0.11900
C534        C  0.46600376  0.42064223  0.25017016     0.02100
H535        H  0.38094051  0.33789074  0.23661495     0.15000
H536        H  0.48872524  0.44451005  0.29667411     0.15000
C537        C  0.49875086  0.45207793  0.23421810     0.36700
C538        C  0.37090033  0.33058880  0.30040487     0.36600
N539        N  0.52506887  0.47729400  0.22159747    -0.43700
N540        N  0.34498502  0.30547534  0.31352278    -0.43700
C541        C  0.82714434  0.66083573  0.15665676    -0.00100
C542        C  0.86251853  0.69551931  0.15726931    -0.11900
C543        C  0.89696301  0.69667320  0.15893445     0.02200
C544        C  0.89645803  0.66245479  0.16004558    -0.00200
C545        C  0.86106441  0.62785761  0.16114697    -0.11900
C546        C  0.82664627  0.62669143  0.15943604     0.02100
H547        H  0.86340323  0.72196993  0.15568559     0.15000
H548        H  0.86015623  0.60137863  0.16246982     0.15000
C549        C  0.79146884  0.58990712  0.16038607     0.36700
C550        C  0.93219284  0.73344143  0.15915247     0.36600
N551        N  0.76336000  0.56036777  0.16112874    -0.43700
N552        N  0.96041194  0.76290743  0.15932408    -0.43700
C553        C  0.72020927  0.68308279  0.30780383    -0.00100
C554        C  0.68697966  0.65557498  0.29160334    -0.11900
C555        C  0.68490131  0.65495713  0.25785846     0.02200
C556        C  0.71650980  0.68258808  0.23959558    -0.00200
C557        C  0.74827355  0.71235102  0.25581734    -0.11900
C558        C  0.75057547  0.71257136  0.28976177     0.02100
H559        H  0.66330810  0.63309788  0.30532827     0.15000
H560        H  0.77276585  0.73350390  0.24198668     0.15000
C561        C  0.78605936  0.74057935  0.30508580     0.36700
C562        C  0.65073971  0.62439298  0.24262843     0.36600
N563        N  0.81460632  0.76273565  0.31741487    -0.43700
N564        N  0.62351539  0.59978233  0.23042172    -0.43700
C565        C  0.62481302  0.56070425  0.12921570    -0.00100
C566        C  0.62555099  0.52784255  0.12405152    -0.11900
C567        C  0.59186128  0.49192810  0.12312020     0.02200
C568        C  0.55602590  0.48820853  0.12710536    -0.00200
C569        C  0.55519459  0.52122783  0.13114022    -0.11900
C570        C  0.58897938  0.55716597  0.13239729     0.02100
H571        H  0.65274980  0.53001389  0.12143688     0.15000
H572        H  0.52801643  0.51897325  0.13422078     0.15000
C573        C  0.58571588  0.58945317  0.13823738     0.36700
C574        C  0.59546632  0.45962169  0.11879585     0.36600
N575        N  0.58294316  0.61520498  0.14306333    -0.43700
N576        N  0.59868994  0.43391856  0.11543553    -0.43700
C577        C  0.72061520  0.72385829  0.80627495    -0.00100
C578        C  0.73969447  0.75861765  0.78946088    -0.11900
C579        C  0.74066483  0.75985356  0.75552537     0.02200
C580        C  0.72240058  0.72566604  0.73767980    -0.00200
C581        C  0.70731971  0.69119878  0.75455297    -0.11900
C582        C  0.70637935  0.68996492  0.78846709     0.02100
H583        H  0.75132730  0.78495040  0.80270797     0.15000
H584        H  0.69398419  0.66478201  0.74119775     0.15000
C585        C  0.68841701  0.65324109  0.80404906     0.36700
C586        C  0.75731791  0.79646455  0.73994308     0.36600
N587        N  0.67394116  0.62380907  0.81653475    -0.43700
N588        N  0.77053353  0.82580350  0.72748641    -0.43700
C589        C  0.71779439  0.72246153  0.99017246    -0.00100
C590        C  0.70167894  0.73102787  0.01600027    -0.11900
C591        C  0.70772033  0.72478980  0.04826770     0.02200
C592        C  0.73053707  0.70967237  0.05535760    -0.00200
C593        C  0.74841676  0.70319110  0.02960214    -0.11900
C594        C  0.74220815  0.70924928  0.99733711     0.02100
H595        H  0.68311849  0.74151598  0.01097124     0.15000
H596        H  0.76612659  0.69170413  0.03452902     0.15000
C597        C  0.75942705  0.69932879  0.97225001     0.36700
C598        C  0.68847614  0.73242537  0.07323030     0.36600
N599        N  0.77320235  0.69119071  0.95225794    -0.43700
N600        N  0.67291657  0.73853155  0.09311649    -0.43700
C601        C  0.29150478  0.45788433  0.91160497    -0.00100
C602        C  0.25625019  0.42533686  0.90332962    -0.11900
C603        C  0.22219615  0.42486496  0.90503332     0.02200
C604        C  0.22275822  0.45705161  0.91652006    -0.00200
C605        C  0.25794105  0.48936779  0.92534223    -0.11900
C606        C  0.29213480  0.49029148  0.92264804     0.02100
H607        H  0.25538911  0.40055203  0.89420358     0.15000
H608        H  0.25892323  0.51445098  0.93382207     0.15000
C609        C  0.32727567  0.52518536  0.93096013     0.36700
C610        C  0.18777925  0.39197812  0.89257605     0.36600
N611        N  0.35539969  0.55328011  0.93737698    -0.43700
N612        N  0.16033222  0.36585478  0.88214411    -0.43700
C613        C  0.37976767  0.43494502  0.79900905    -0.00100
C614        C  0.35203546  0.43832277  0.78220044    -0.11900
C615        C  0.35154293  0.43953660  0.74835869     0.02200
C616        C  0.37919493  0.43728170  0.73047342    -0.00200
C617        C  0.40535040  0.43129038  0.74700153    -0.11900
C618        C  0.40610556  0.43047379  0.78107751     0.02100
H619        H  0.33137767  0.44137420  0.79563671     0.15000
H620        H  0.42692668  0.42993716  0.73338376     0.15000
C621        C  0.43651048  0.42892574  0.79684441     0.36700
C622        C  0.32263789  0.44365030  0.73248144     0.36600
N623        N  0.46120448  0.42804895  0.80930175    -0.43700
N624        N  0.29947586  0.44684271  0.71969625    -0.43700
C625        C  0.39249276  0.41114973  0.98601791    -0.00100
C626        C  0.38842430  0.42799976  0.01382263    -0.11900
C627        C  0.39513338  0.41903595  0.04493788     0.02200
C628        C  0.40638212  0.39262335  0.04883734    -0.00200
C629        C  0.40834623  0.37419496  0.02118462    -0.11900
C630        C  0.40136159  0.38300854  0.99004837     0.02100
H631        H  0.38118285  0.44937683  0.01122381     0.15000
H632        H  0.41669983  0.35365080  0.02376277     0.15000
C633        C  0.40574379  0.36431449  0.96271672     0.36700
C634        C  0.39275057  0.43941434  0.07198828     0.36600
N635        N  0.40928067  0.34929577  0.94083147    -0.43700
N636        N  0.39085579  0.45595630  0.09350056    -0.43700
C637        C  0.49901095  0.55558572  0.89770286    -0.00100
C638        C  0.53146764  0.55286082  0.89936951    -0.11900
C639        C  0.56848758  0.58548386  0.89948767     0.02200
C640        C  0.57344072  0.62175679  0.89775243    -0.00200
C641        C  0.54104325  0.62436070  0.89606356    -0.11900
C642        C  0.50421624  0.59199388  0.89611461     0.02100
H643        H  0.52797850  0.52517386  0.90055610     0.15000
H644        H  0.54443092  0.65202489  0.89484233     0.15000
C645        C  0.47256642  0.59745374  0.89398006     0.36700
C646        C  0.60061820  0.58070635  0.90035869     0.36600
N647        N  0.44727286  0.60192397  0.89226416    -0.43700
N648        N  0.62627037  0.57672485  0.90097006    -0.41300
C649        C  0.66119894  0.88071979  0.89770085    -0.00100
C650        C  0.62798059  0.84417890  0.89666121    -0.11900
C651        C  0.63006180  0.81174224  0.89522734     0.02200
C652        C  0.66614724  0.81546750  0.89456682    -0.00200
C653        C  0.69932656  0.85202437  0.89490168    -0.11900
C654        C  0.69726312  0.88442988  0.89652725     0.02100
H655        H  0.60009410  0.84079921  0.89744546     0.15000
H656        H  0.72721963  0.85539536  0.89436563     0.15000
C657        C  0.73279019  0.92085028  0.89819457     0.36700
C658        C  0.59463294  0.77516912  0.89599753     0.36600
N659        N  0.76133071  0.94995766  0.89968778    -0.43700
N660        N  0.56616336  0.74593994  0.89683192    -0.43700
C661        C  0.28486708  0.88616635  0.88800561    -0.00100
C662        C  0.25205773  0.88824485  0.88862907    -0.11900
C663        C  0.21542799  0.85541849  0.88980338     0.02200
C664        C  0.21110361  0.81940295  0.89041150    -0.00200
C665        C  0.24381032  0.81732137  0.88823808    -0.11900
C666        C  0.28038792  0.85007724  0.88695938     0.02100
H667        H  0.25496218  0.91569899  0.88889204     0.15000
H668        H  0.24096628  0.78988429  0.88823741     0.15000
C669        C  0.31249376  0.84534876  0.88516773     0.36700
C670        C  0.18309981  0.85984955  0.89075737     0.36600
N671        N  0.33804428  0.84129876  0.88366133    -0.43700
N672        N  0.15721991  0.86344430  0.89152490    -0.43700
C673        C  0.55309101  0.97746359  0.91907874    -0.00100
C674        C  0.51721901  0.94326827  0.91980823    -0.11900
C675        C  0.48319835  0.94305484  0.91920862     0.02200
C676        C  0.48468236  0.97774615  0.91730637    -0.00200
C677        C  0.52050459  0.01186778  0.91878208    -0.11900
C678        C  0.55443663  0.01210160  0.91983535     0.02100
H679        H  0.51562010  0.91642791  0.92002509     0.15000
H680        H  0.52221519  0.03875893  0.91825896     0.15000
C681        C  0.58997549  0.04851944  0.92135314     0.36700
C682        C  0.44751829  0.90675192  0.92044574     0.36600
N683        N  0.61825064  0.07787358  0.92267890    -0.43700
N684        N  0.41916454  0.87746212  0.92175505    -0.43700
C685        C  0.88284521  0.27783605  0.14687664    -0.00100
C686        C  0.84984577  0.27315392  0.16104733    -0.11900
C687        C  0.81602253  0.23747841  0.16300952     0.02200
C688        C  0.81467610  0.20529519  0.15042824    -0.00200
C689        C  0.84788021  0.20996894  0.13652566    -0.11900
C690        C  0.88172105  0.24573890  0.13457324     0.02100
H691        H  0.85048887  0.29754717  0.17090448     0.15000
H692        H  0.84730475  0.18568411  0.12652943     0.15000
C693        C  0.91416593  0.24871243  0.11858842     0.36700
C694        C  0.78343986  0.23520116  0.17807967     0.36600
N695        N  0.94003729  0.25098285  0.10562954    -0.43700
N696        N  0.75749581  0.23366756  0.19019522    -0.43700
C697        C  0.70014072  0.02408145  0.99268237    -0.00100
C698        C  0.69237256  0.00024162  0.01969557    -0.11900
C699        C  0.69849856  0.01422929  0.05138930     0.02200
C700        C  0.71225601  0.05290927  0.05664745    -0.00200
C701        C  0.72283116  0.07725452  0.02960093    -0.11900
C702        C  0.71734781  0.06338959  0.99791564     0.02100
H703        H  0.68002523  0.97011821  0.01612864     0.15000
H704        H  0.73449550  0.10726098  0.03312691     0.15000
C705        C  0.72818851  0.09008394  0.97149108     0.36700
C706        C  0.68879056  0.98777103  0.07781132     0.36600
N707        N  0.73715826  0.11166929  0.95043165    -0.43700
N708        N  0.68107402  0.96641891  0.09887516    -0.43700
C709        C  0.45052494  0.28238679  0.13087224    -0.00100
C710        C  0.48592395  0.28520978  0.13016661    -0.11900
C711        C  0.48821761  0.25295651  0.13007689     0.02200
C712        C  0.45437942  0.21641465  0.13056663    -0.00200
C713        C  0.41887568  0.21348216  0.13093902    -0.11900
C714        C  0.41662935  0.24591062  0.13094565     0.02100
H715        H  0.51226286  0.31293191  0.13010196     0.15000
H716        H  0.39263715  0.18570190  0.13114423     0.15000
C717        C  0.37916528  0.24064737  0.13036330     0.36700
C718        C  0.52590423  0.25867073  0.13014219     0.36600
N719        N  0.34903356  0.23619998  0.12973782    -0.43700
N720        N  0.55613675  0.26334817  0.13023247    -0.43700
C721        C  0.41038879  0.06712174  0.04756528    -0.00100
C722        C  0.42076007  0.09055012  0.01995529    -0.11900
C723        C  0.41238082  0.07532330  0.98866894     0.02200
C724        C  0.39351950  0.03565435  0.98443074    -0.00200
C725        C  0.38080160  0.01214207  0.01208453    -0.11900
C726        C  0.38898724  0.02738667  0.04337395     0.02100
H727        H  0.43649644  0.12112572  0.02275065     0.15000
H728        H  0.36580626  0.98159698  0.00937766     0.15000
C729        C  0.37704728  0.00148623  0.07049118     0.36700
C730        C  0.42440113  0.10132504  0.96159708     0.36600
N731        N  0.36744971  0.98061327  0.09215446    -0.43700
N732        N  0.43398615  0.12230435  0.94000813    -0.43700
C733        C  0.55266089  0.10999419  0.13646060    -0.00100
C734        C  0.58898014  0.14357902  0.13531216    -0.11900
C735        C  0.62237599  0.14283264  0.13711776     0.02200
C736        C  0.61985973  0.10767145  0.13960771    -0.00200
C737        C  0.58352552  0.07409146  0.14071649    -0.11900
C738        C  0.55014476  0.07488870  0.13933598     0.02100
H739        H  0.59141445  0.17077583  0.13347103     0.15000
H740        H  0.58104380  0.04689535  0.14281440     0.15000
C741        C  0.51392294  0.03910414  0.14071653     0.36700
C742        C  0.65855174  0.17874089  0.13681598     0.36600
N743        N  0.48497586  0.01035124  0.14189856    -0.43700
N744        N  0.68743769  0.20760619  0.13668729    -0.43700
C745        C  0.66044537  0.87785857  0.64956256    -0.00100
C746        C  0.69758241  0.88488988  0.65271609    -0.11900
C747        C  0.70400644  0.85517339  0.65355043     0.02200
C748        C  0.67277163  0.81730298  0.65103561    -0.00200
C749        C  0.63553674  0.81018404  0.64932551    -0.11900
C750        C  0.62906930  0.83985448  0.64865243     0.02100
H751        H  0.72194921  0.91384755  0.65413272     0.15000
H752        H  0.61119287  0.78120477  0.64790496     0.15000
C753        C  0.58990274  0.83008190  0.64708235     0.36700
C754        C  0.74289486  0.86460424  0.65732847     0.36600
N755        N  0.55841333  0.82194224  0.64591786    -0.43700
N756        N  0.77411250  0.87234344  0.66043566    -0.43700
C757        C  0.66247518  0.99704889  0.73890666    -0.00100
C758        C  0.69487466  0.00315768  0.75589850    -0.11900
C759        C  0.69580803  0.00362227  0.78995436     0.02200
C760        C  0.66402532  0.99828099  0.80740300    -0.00200
C761        C  0.63276764  0.99459908  0.79028679    -0.11900
C762        C  0.63178201  0.99410371  0.75644857     0.02100
H763        H  0.71845236  0.00516388  0.74266214     0.15000
H764        H  0.60841078  0.99096846  0.80346680     0.15000
C765        C  0.59873507  0.99029253  0.74033503     0.36700
C766        C  0.72806907  0.00617810  0.80635214     0.36600
N767        N  0.57233092  0.98737672  0.72744139    -0.43700
N768        N  0.75374738  0.00801102  0.81965920    -0.43700
C769        C  0.29337727  0.89578695  0.65068771    -0.00100
C770        C  0.29111339  0.86125003  0.64605683    -0.11900
C771        C  0.25604263  0.82655521  0.64759641     0.02200
C772        C  0.22223896  0.82598866  0.65420771    -0.00200
C773        C  0.22470906  0.86035736  0.65998336    -0.11900
C774        C  0.25969449  0.89500935  0.65840159     0.02100
H775        H  0.31670510  0.86129590  0.64033923     0.15000
H776        H  0.19902486  0.86024984  0.66546871     0.15000
C777        C  0.25971238  0.92912256  0.66431953     0.36700
C778        C  0.25555776  0.79241202  0.64047757     0.36600
N779        N  0.25970758  0.95645925  0.66901999    -0.43700
N780        N  0.25527039  0.76515984  0.63455948    -0.43700
C781        C  0.40579250  0.02395906  0.80232949    -0.00100
C782        C  0.43944019  0.03278655  0.78640314    -0.11900
C783        C  0.44208639  0.03559791  0.75264529     0.02200
C784        C  0.41040034  0.02930427  0.73391815    -0.00200
C785        C  0.37791648  0.02378545  0.75000428    -0.11900
C786        C  0.37527632  0.02084870  0.78393447     0.02100
H787        H  0.46326508  0.03578235  0.80034210     0.15000
H788        H  0.35333706  0.01879429  0.73601724     0.15000
C789        C  0.33954681  0.01071750  0.79887248     0.36700
C790        C  0.47714553  0.04325639  0.73794096     0.36600
N791        N  0.31088197  0.00233339  0.81094732    -0.43700
N792        N  0.50514507  0.04920962  0.72613088    -0.43700
C793        C  0.48887123  0.98209496  0.62603715    -0.00100
C794        C  0.52521362  0.01461953  0.62066090    -0.11900
C795        C  0.55801482  0.01282806  0.62075732     0.02200
C796        C  0.55486127  0.97769648  0.62605130    -0.00200
C797        C  0.51836234  0.94481235  0.62973290    -0.11900
C798        C  0.48553757  0.94666809  0.63009065     0.02100
H799        H  0.52826546  0.04193491  0.61715901     0.15000
H800        H  0.51550005  0.91765213  0.63376395     0.15000
C801        C  0.44931593  0.91196602  0.63626655     0.36700
C802        C  0.59443427  0.04773177  0.61581265     0.36600
N803        N  0.42040320  0.88413169  0.64144155    -0.43700
N804        N  0.62360411  0.07574633  0.61197372    -0.43700
C805        C  0.89429411  0.28400783  0.41077987    -0.00100
C806        C  0.85922947  0.28158586  0.40724132    -0.11900
C807        C  0.82463613  0.24659123  0.40504158     0.02200
C808        C  0.82442277  0.21253279  0.40622529    -0.00200
C809        C  0.85947285  0.21485081  0.40992533    -0.11900
C810        C  0.89415807  0.25000835  0.41232696     0.02100
H811        H  0.85869507  0.30731735  0.40599550     0.15000
H812        H  0.85986016  0.18904939  0.41116999     0.15000
C813        C  0.92879579  0.25000974  0.41710081     0.36700
C814        C  0.78998782  0.24695591  0.40205139     0.36600
N815        N  0.95638907  0.24972839  0.42109903    -0.43700
N816        N  0.76233074  0.24745061  0.39977180    -0.43700
C817        C  0.71835464  0.06895397  0.30961897    -0.00100
C818        C  0.68246561  0.04993160  0.29409577    -0.11900
C819        C  0.67940046  0.04750725  0.26025176     0.02200
C820        C  0.71282970  0.06437330  0.24106556    -0.00200
C821        C  0.74840644  0.07983258  0.25667259    -0.11900
C822        C  0.75149136  0.08231735  0.29052403     0.02100
H823        H  0.65662556  0.03865045  0.30832094     0.15000
H824        H  0.77431932  0.09240591  0.24236982     0.15000
C825        C  0.78930961  0.10071707  0.30462393     0.36700
C826        C  0.64159020  0.02879441  0.24603880     0.36600
N827        N  0.81968207  0.11551421  0.31582266    -0.43700
N828        N  0.61124094  0.01374115  0.23475847    -0.43700
C829        C  0.72016566  0.05651854  0.49219666    -0.00100
C830        C  0.69901323  0.01682720  0.49424785    -0.11900
C831        C  0.68877866  0.99823643  0.52431045     0.02200
C832        C  0.70004926  0.01955267  0.55337762    -0.00200
C833        C  0.72428102  0.05921290  0.55122558    -0.11900
C834        C  0.73444480  0.07775439  0.52107979     0.02100
H835        H  0.68855851  0.00015797  0.47226554     0.15000
H836        H  0.73405584  0.07601962  0.57315044     0.15000
C837        C  0.75936032  0.11859604  0.52055925     0.36700
C838        C  0.66547669  0.95729118  0.52420258     0.36600
N839        N  0.77947897  0.15130287  0.52009962    -0.43700
N840        N  0.64670232  0.92448274  0.52383891    -0.43700
C841        C  0.45677598  0.29156825  0.40119335    -0.00100
C842        C  0.49048772  0.29417287  0.41166178    -0.11900
C843        C  0.49363081  0.26242427  0.41208571     0.02200
C844        C  0.46237900  0.22683531  0.40193358    -0.00200
C845        C  0.42858622  0.22421088  0.39153556    -0.11900
C846        C  0.42557275  0.25610304  0.39090875     0.02100
H847        H  0.51464725  0.32121964  0.41970194     0.15000
H848        H  0.40454197  0.19722124  0.38327715     0.15000
C849        C  0.39064688  0.25172141  0.37854615     0.36700
C850        C  0.52918794  0.26747929  0.42349511     0.36600
N851        N  0.36276486  0.24836558  0.36854924    -0.43700
N852        N  0.55778664  0.27179464  0.43264249    -0.43700
C853        C  0.43438410  0.10741637  0.23304094    -0.00100
C854        C  0.42309762  0.07426888  0.25097895    -0.11900
C855        C  0.42464375  0.07522605  0.28508922     0.02200
C856        C  0.43755432  0.10976228  0.30134362    -0.00200
C857        C  0.44576953  0.14186128  0.28328848    -0.11900
C858        C  0.44415931  0.14095720  0.24956763     0.02100
H859        H  0.41561610  0.04841909  0.23842140     0.15000
H860        H  0.45488527  0.16831015  0.29560289     0.15000
C861        C  0.45375074  0.17528813  0.23235150     0.36700
C862        C  0.41614132  0.04152256  0.30263020     0.36600
N863        N  0.46144473  0.20267350  0.21841837    -0.43700
N864        N  0.40945188  0.01457708  0.31677844    -0.43700
C865        C  0.41979795  0.07953928  0.48647470    -0.00100
C866        C  0.43187709  0.10289853  0.51398778    -0.11900
C867        C  0.42346259  0.08756056  0.54535902     0.02200
C868        C  0.40256180  0.04776547  0.54986646    -0.00200
C869        C  0.38822960  0.02443181  0.52230184    -0.11900
C870        C  0.39654323  0.03982025  0.49089218     0.02100
H871        H  0.44908925  0.13348796  0.51105578     0.15000
H872        H  0.37172657  0.99383167  0.52517793     0.15000
C873        C  0.38257918  0.01395606  0.46387917     0.36700
C874        C  0.43784991  0.11359277  0.57224254     0.36600
N875        N  0.37134727  0.99312618  0.44229593    -0.43700
N876        N  0.44945605  0.13465035  0.59366132    -0.43700
C877        C  0.56429157  0.12394897  0.40216053    -0.00100
C878        C  0.55901778  0.08799574  0.40653782    -0.11900
C879        C  0.59014024  0.08333415  0.40796254     0.02200
C880        C  0.62786718  0.11521894  0.40474981    -0.00200
C881        C  0.63313187  0.15120561  0.40039293    -0.11900
C882        C  0.60199374  0.15588546  0.39917973     0.02100
H883        H  0.53030176  0.06320709  0.40897337     0.15000
H884        H  0.66182514  0.17599497  0.39780762     0.15000
C885        C  0.60985227  0.19373699  0.39413406     0.36700
C886        C  0.58208999  0.04532938  0.41228702     0.36600
N887        N  0.61638915  0.22415679  0.39008703    -0.43700
N888        N  0.57538889  0.01477976  0.41576947    -0.43700
loop_ 
_geom_bond_atom_site_label_1 
_geom_bond_atom_site_label_2 
_geom_bond_distance 
_geom_bond_site_symmetry_2 
_ccdc_geom_bond_type 
In1           O3   2.230       .  S
In1           O4   2.265       .  S
In1          O12   2.238       .  S
In1           O6   2.226       .  S
In1           O8   2.247       .  S
In1           O9   2.279       .  S
In1          O10   2.243       .  S
In1          O13   2.214       .  S
C2            O8   1.260       .  A
C2           O10   1.261       .  A
C2          C877   1.486       .  S
O3           C11   1.259       .  A
O4           C11   1.265       .  A
C5           O12   1.264       .  A
C5            O6   1.262       .  A
C5          C844   1.482       .  S
C7            O9   1.265       .  A
C7           O13   1.258       .  A
C7          C856   1.480       .  S
C11         C865   1.489       .  S
In14         O16   2.245       .  S
In14         O17   2.244       .  S
In14         O25   2.238       .  S
In14         O19   2.271       .  S
In14         O21   2.263       .  S
In14         O22   2.229       .  S
In14         O23   2.261       .  S
In14         O26   2.248       .  S
C15          O21   1.257       .  A
C15          O23   1.256       .  A
C15         C817   1.491       .  S
O16          C24   1.262       .  A
O17          C24   1.263       .  A
C18          O25   1.256       .  A
C18          O19   1.263       .  A
C18         C829   1.486       .  S
C20          O22   1.262       .  A
C20          O26   1.264       .  A
C20         C808   1.487       .  S
C24         C880   1.488       .  S
In27         O29   2.230       .  S
In27         O30   2.235       .  S
In27         O38   2.248       .  S
In27         O32   2.267   1_565  S
In27         O34   2.280   1_565  S
In27         O35   2.228       .  S
In27         O36   2.230   1_565  S
In27         O39   2.233   1_565  S
C28          O34   1.262       .  A
C28          O36   1.255       .  A
C28         C784   1.487       .  S
O29          C37   1.261       .  A
O30          C37   1.261       .  A
C31          O38   1.257   1_545  A
C31          O32   1.262       .  A
C31         C868   1.492       .  S
C33          O35   1.262       .  A
C33          O39   1.265   1_565  A
C33         C793   1.483       .  S
C37         C769   1.482       .  S
In40         O42   2.216   1_565  S
In40         O43   2.239       .  S
In40         O51   2.226       .  S
In40         O45   2.266   1_565  S
In40         O47   2.273   1_565  S
In40         O48   2.234       .  S
In40         O49   2.218       .  S
In40         O52   2.225       .  S
C41          O47   1.267   1_565  A
C41          O49   1.259       .  A
C41         C757   1.482       .  S
O42          C50   1.262   1_545  A
O43          C50   1.266       .  A
C44          O51   1.259   1_545  A
C44          O45   1.267       .  A
C44         C832   1.492       .  S
C46          O48   1.263       .  A
C46          O52   1.262       .  A
C46         C745   1.482       .  S
C50         C796   1.481       .  S
In53         O55   2.235       .  S
In53         O56   2.237       .  S
In53         O64   2.224       .  S
In53         O58   2.263       .  S
In53         O60   2.281       .  S
In53         O61   2.218       .  S
In53         O62   2.197       .  S
In53         O65   2.244       .  S
C54          O60   1.268       .  A
C54          O62   1.258       .  A
C54         C853   1.478       .  S
O55          C63   1.261       .  A
O56          C63   1.262       .  A
C57          O64   1.259       .  A
C57          O58   1.266       .  A
C57         C721   1.487       .  S
C59          O61   1.263       .  A
C59          O65   1.265       .  A
C59         C712   1.486       .  S
C63         C733   1.482       .  S
In66         O68   2.238       .  S
In66         O69   2.229       .  S
In66         O77   2.230       .  S
In66         O71   2.276       .  S
In66         O73   2.267       .  S
In66         O74   2.228       .  S
In66         O75   2.247       .  S
In66         O78   2.235       .  S
C67          O73   1.260       .  A
C67          O75   1.256       .  A
C67         C820   1.489       .  S
O68          C76   1.263       .  A
O69          C76   1.261       .  A
C70          O77   1.256       .  A
C70          O71   1.264       .  A
C70         C700   1.490       .  S
C72          O74   1.261       .  A
C72          O78   1.264       .  A
C72         C736   1.483       .  S
C76         C688   1.483       .  S
In79         O81   2.230   1_565  S
In79         O82   2.242       .  S
In79         O90   2.236       .  S
In79         O84   2.257   1_565  S
In79         O86   2.273   1_565  S
In79         O87   2.226       .  S
In79         O88   2.235       .  S
In79         O91   2.239       .  S
C80          O86   1.261       .  A
C80          O88   1.256   1_545  A
C80         C781   1.483       .  S
O81          C89   1.264   1_545  A
O82          C89   1.262       .  A
C83          O90   1.259   1_545  A
C83          O84   1.263       .  A
C83         C724   1.489       .  S
C85          O87   1.259       .  A
C85          O91   1.262       .  A
C85         C661   1.481       .  S
C89         C676   1.485       .  S
In92         O94   2.227       .  S
In92         O95   2.263   1_565  S
In92        O103   2.231       .  S
In92         O97   2.241       .  S
In92         O99   2.243       .  S
In92        O100   2.268   1_565  S
In92        O101   2.228   1_565  S
In92        O104   2.217       .  S
C93          O99   1.266       .  A
C93         O101   1.262   1_565  A
C93         C673   1.486       .  S
O94         C102   1.260   1_565  A
O95         C102   1.266       .  A
C96         O103   1.262       .  A
C96          O97   1.265       .  A
C96         C649   1.486       .  S
C98         O100   1.267   1_565  A
C98         O104   1.259       .  A
C98         C760   1.481       .  S
C102        C697   1.489       .  S
In105       O107   2.244       .  S
In105       O108   2.216       .  S
In105       O116   2.219       .  S
In105       O110   2.276       .  S
In105       O112   2.288       .  S
In105       O113   2.216       .  S
In105       O114   2.224       .  S
In105       O117   2.257       .  S
C106        O112   1.266       .  A
C106        O114   1.257       .  A
C106        C613   1.486       .  S
O107        C115   1.267       .  A
O108        C115   1.261       .  A
C109        O116   1.258       .  A
C109        O110   1.268       .  A
C109        C625   1.489       .  S
C111        O113   1.258       .  A
C111        O117   1.262       .  A
C111        C637   1.483       .  S
C115        C601   1.483       .  S
In118       O120   2.248       .  S
In118       O121   2.225       .  S
In118       O129   2.231       .  S
In118       O123   2.267       .  S
In118       O125   2.249       .  S
In118       O126   2.242       .  S
In118       O127   2.268       .  S
In118       O130   2.241       .  S
C119        O125   1.255       .  A
C119        O127   1.258       .  A
C119        C577   1.489       .  S
O120        C128   1.262       .  A
O121        C128   1.263       .  A
C122        O129   1.257       .  A
C122        O123   1.264       .  A
C122        C589   1.487       .  S
C124        O126   1.262       .  A
C124        O130   1.263       .  A
C124        C652   1.486       .  S
C128        C640   1.480       .  S
In131       O133   2.239       .  S
In131       O134   2.231       .  S
In131       O142   2.232       .  S
In131       O136   2.260       .  S
In131       O138   2.208       .  S
In131       O139   2.225       .  S
In131       O140   2.277       .  S
In131       O143   2.247       .  S
C132        O138   1.255       .  A
C132        O140   1.264       .  A
C132        C556   1.478       .  S
O133        C141   1.262       .  A
O134        C141   1.263       .  A
C135        O142   1.258       .  A
C135        O136   1.263       .  A
C135        C592   1.488       .  S
C137        O139   1.260       .  A
C137        O143   1.264       .  A
C137        C541   1.484       .  S
C141        C565   1.485       .  S
In144       O146   2.257       .  S
In144       O147   2.224       .  S
In144       O155   2.236       .  S
In144       O149   2.269       .  S
In144       O151   2.294       .  S
In144       O152   2.237       .  S
In144       O153   2.215       .  S
In144       O156   2.247       .  S
C145        O151   1.266       .  A
C145        O153   1.256       .  A
C145        C529   1.486       .  S
O146        C154   1.264       .  A
O147        C154   1.261       .  A
C148        O155   1.258       .  A
C148        O149   1.264       .  A
C148        C628   1.489       .  S
C150        O152   1.261       .  A
C150        O156   1.263       .  A
C150        C568   1.487       .  S
C154        C709   1.486       .  S
In157       O159   2.250       .  S
In157       O160   2.237       .  S
In157       O168   2.228       .  S
In157       O162   2.257       .  S
In157       O164   2.278       .  S
In157       O165   2.222       .  S
In157       O166   2.221       .  S
In157       O169   2.243       .  S
C158        O164   1.265       .  A
C158        O166   1.258       .  A
C158        C616   1.480       .  S
O159        C167   1.260       .  A
O160        C167   1.259       .  A
C161        O168   1.259       .  A
C161        O162   1.265       .  A
C161        C505   1.483       .  S
C163        O165   1.262       .  A
C163        O169   1.265       .  A
C163        C496   1.484       .  S
C167        C517   1.483       .  S
In170       O172   2.242       .  S
In170       O173   2.224       .  S
In170       O181   2.235       .  S
In170       O175   2.262       .  S
In170       O177   2.252       .  S
In170       O178   2.229       .  S
In170       O179   2.258       .  S
In170       O182   2.246       .  S
C171        O177   1.257       .  A
C171        O179   1.257       .  A
C171        C580   1.486       .  S
O172        C180   1.263       .  A
O173        C180   1.260       .  A
C174        O181   1.257       .  A
C174        O175   1.262       .  A
C174        C481   1.486       .  S
C176        O178   1.261       .  A
C176        O182   1.263       .  A
C176        C520   1.486       .  S
C180        C748   1.480       .  S
In183       O185   2.237       .  S
In183       O186   2.239       .  S
In183       O194   2.225       .  S
In183       O188   2.255       .  S
In183       O190   2.265       .  S
In183       O191   2.226       .  S
In183       O192   2.218       .  S
In183       O195   2.239       .  S
C184        O190   1.263       .  A
C184        O192   1.257       .  A
C184        C553   1.476       .  S
O185        C193   1.261       .  A
O186        C193   1.261       .  A
C187        O194   1.258       .  A
C187        O188   1.263       .  A
C187        C484   1.485       .  S
C189        O191   1.262       .  A
C189        O195   1.263       .  A
C189        C469   1.484       .  S
C193        C460   1.483       .  S
In196       O198   2.242       .  S
In196       O199   2.218       .  S
In196       O207   2.221       .  S
In196       O201   2.261       .  S
In196       O203   2.292       .  S
In196       O204   2.221       .  S
In196       O205   2.214       .  S
In196       O208   2.236       .  S
C197        O203   1.264       .  A
C197        O205   1.256       .  A
C197        C532   1.489       .  S
O198        C206   1.265       .  A
O199        C206   1.263       .  A
C200        O207   1.257       .  A
C200        O201   1.265       .  A
C200        C508   1.487       .  S
C202        O204   1.260       .  A
C202        O208   1.262       .  A
C202        C841   1.478       .  S
C206        C472   1.482       .  S
In209       O211   2.224       .  S
In209       O212   2.260       .  S
In209       O220   2.238       .  S
In209       O214   2.227       .  S
In209       O216   2.236       .  S
In209       O217   2.293       .  S
In209       O218   2.244       .  S
In209       O221   2.210       .  S
C210        O216   1.261       .  A
C210        O218   1.262       .  A
C210        C448   1.481       .  S
O211        C219   1.259       .  A
O212        C219   1.268       .  A
C213        O220   1.263       .  A
C213        O214   1.264       .  A
C213        C493   1.484       .  S
C215        O217   1.267       .  A
C215        O221   1.258       .  A
C215        C421   1.485       .  S
C219        C433   1.489       .  S
In222       O224   2.240       .  S
In222       O225   2.241       .  S
In222       O233   2.226       .  S
In222       O227   2.271       .  S
In222       O229   2.251       .  S
In222       O230   2.233       .  S
In222       O231   2.268       .  S
In222       O234   2.227       .  S
C223        O229   1.257       .  A
C223        O231   1.257       .  A
C223        C397   1.486       .  S
O224        C232   1.262       .  A
O225        C232   1.262       .  A
C226        O233   1.255       .  A
C226        O227   1.264       .  A
C226        C409   1.484       .  S
C228        O230   1.263       .  A
C228        O234   1.264       .  A
C228        C772   1.479       .  S
C232        C445   1.486       .  S
In235       O237   2.254       .  S
In235       O238   2.225       .  S
In235       O246   2.225       .  S
In235       O240   2.265   1_655  S
In235       O242   2.288   1_655  S
In235       O243   2.240       .  S
In235       O244   2.200       .  S
In235       O247   2.251   1_655  S
C236        O242   1.267       .  A
C236        O244   1.257   1_455  A
C236        C373   1.477       .  S
O237        C245   1.264       .  A
O238        C245   1.263       .  A
C239        O246   1.259   1_455  A
C239        O240   1.266       .  A
C239        C436   1.488       .  S
C241        O243   1.260       .  A
C241        O247   1.262   1_655  A
C241        C385   1.486       .  S
C245        C805   1.487       .  S
In248       O250   2.249       .  S
In248       O251   2.229   1_455  S
In248       O259   2.227   1_455  S
In248       O253   2.266       .  S
In248       O255   2.283       .  S
In248       O256   2.229   1_455  S
In248       O257   2.208       .  S
In248       O260   2.245   1_455  S
C249        O255   1.264       .  A
C249        O257   1.255       .  A
C249        C361   1.475       .  S
O250        C258   1.264       .  A
O251        C258   1.263   1_655  A
C252        O259   1.257   1_455  A
C252        O253   1.265       .  A
C252        C412   1.488       .  S
C254        O256   1.260       .  A
C254        O260   1.262       .  A
C254        C457   1.482       .  S
C258        C388   1.487       .  S
In261       O263   2.232       .  S
In261       O264   2.248       .  S
In261       O272   2.226       .  S
In261       O266   2.262       .  S
In261       O268   2.287       .  S
In261       O269   2.230       .  S
In261       O270   2.208       .  S
In261       O273   2.230       .  S
C262        O268   1.267       .  A
C262        O270   1.258       .  A
C262        C424   1.484       .  S
O263        C271   1.260       .  A
O264        C271   1.262       .  A
C265        O272   1.259       .  A
C265        O266   1.266       .  A
C265        C337   1.487   1_556  S
C267        O269   1.264       .  A
C267        O273   1.263       .  A
C267        C604   1.482       .  S
C271        C349   1.487       .  S
In274       O276   2.232       .  S
In274       O277   2.224       .  S
In274       O285   2.229       .  S
In274       O279   2.263       .  S
In274       O281   2.230       .  S
In274       O282   2.234       .  S
In274       O283   2.276       .  S
In274       O286   2.236       .  S
C275        O281   1.256       .  A
C275        O283   1.260       .  A
C275        C400   1.483       .  S
O276        C284   1.261       .  A
O277        C284   1.261       .  A
C278        O285   1.255       .  A
C278        O279   1.263       .  A
C278        C325   1.487       .  S
C280        O282   1.262       .  A
C280        O286   1.265       .  A
C280        C352   1.483       .  S
C284        C664   1.480       .  S
In287       O289   2.236   1_655  S
In287       O290   2.247       .  S
In287       O298   2.232       .  S
In287       O292   2.247   1_655  S
In287       O294   2.282   1_655  S
In287       O295   2.226       .  S
In287       O296   2.211       .  S
In287       O299   2.239       .  S
C288        O294   1.265   1_655  A
C288        O296   1.258       .  A
C288        C376   1.480   1_655  S
O289        C297   1.260   1_455  A
O290        C297   1.261       .  A
C291        O298   1.260   1_455  A
C291        O292   1.265       .  A
C291        C340   1.483       .  S
C293        O295   1.263       .  A
C293        O299   1.263       .  A
C293        C685   1.479       .  S
C297        C313   1.485       .  S
In300       O302   2.225       .  S
In300       O303   2.256   1_655  S
In300       O311   2.228       .  S
In300       O305   2.242       .  S
In300       O307   2.231       .  S
In300       O308   2.274   1_655  S
In300       O309   2.236   1_655  S
In300       O312   2.227   1_655  S
C301        O307   1.264       .  A
C301        O309   1.265   1_655  A
C301        C316   1.486       .  S
O302        C310   1.257   1_655  A
O303        C310   1.265       .  A
C304        O311   1.259       .  A
C304        O305   1.262       .  A
C304        C544   1.483       .  S
C306        O308   1.261       .  A
C306        O312   1.256       .  A
C306        C364   1.479       .  S
C310        C328   1.485       .  S
C313        C314   1.405       .  A
C313        C318   1.415   1_655  A
C314        C315   1.400       .  A
C314        H319   1.085       .  S
C315        C316   1.415       .  A
C315        C322   1.444       .  S
C316        C317   1.405   1_655  A
C317        C318   1.400       .  A
C317        H320   1.085       .  S
C318        C321   1.445       .  S
C321        N323   1.157       .  T
C322        N324   1.157       .  T
C325        C326   1.404       .  A
C325        C330   1.418   1_556  A
C326        C327   1.401   1_556  A
C326        H331   1.085       .  S
C327        C328   1.417       .  A
C327        C334   1.445   1_455  S
C328        C329   1.402       .  A
C329        C330   1.399       .  A
C329        H332   1.085       .  S
C330        C333   1.444       .  S
C333        N335   1.157       .  T
C334        N336   1.157       .  T
C337        C338   1.405       .  A
C337        C342   1.417       .  A
C338        C339   1.403       .  A
C338        H343   1.085   1_554  S
C339        C340   1.415       .  A
C339        C346   1.444   1_455  S
C340        C341   1.402       .  A
C341        C342   1.399       .  A
C341        H344   1.085       .  S
C342        C345   1.444       .  S
C345        N347   1.157       .  T
C346        N348   1.157       .  T
C349        C350   1.406       .  A
C349        C354   1.416       .  A
C350        C351   1.402       .  A
C350        H355   1.085       .  S
C351        C352   1.415       .  A
C351        C358   1.445       .  S
C352        C353   1.403       .  A
C353        C354   1.398       .  A
C353        H356   1.085       .  S
C354        C357   1.444       .  S
C357        N359   1.157       .  T
C358        N360   1.158       .  T
C361        C362   1.404       .  A
C361        C366   1.410       .  A
C362        C363   1.406       .  A
C362        H367   1.085       .  S
C363        C364   1.415       .  A
C363        C370   1.444       .  S
C364        C365   1.403       .  A
C365        C366   1.396       .  A
C365        H368   1.085       .  S
C366        C369   1.445       .  S
C369        N371   1.157       .  T
C370        N372   1.157       .  T
C373        C374   1.400   1_455  A
C373        C378   1.412       .  A
C374        C375   1.393       .  A
C374        H379   1.086       .  S
C375        C376   1.411   1_655  A
C375        C382   1.446       .  S
C376        C377   1.407       .  A
C377        C378   1.411       .  A
C377        H380   1.085       .  S
C378        C381   1.443       .  S
C381        N383   1.157       .  T
C382        N384   1.157       .  T
C385        C386   1.406   1_655  A
C385        C390   1.414       .  A
C386        C387   1.403       .  A
C386        H391   1.085       .  S
C387        C388   1.415       .  A
C387        C394   1.444       .  S
C388        C389   1.405   1_455  A
C389        C390   1.399       .  A
C389        H392   1.085       .  S
C390        C393   1.444       .  S
C393        N395   1.157       .  T
C394        N396   1.157       .  T
C397        C398   1.404       .  A
C397        C402   1.415       .  A
C398        C399   1.397       .  A
C398        H403   1.085       .  S
C399        C400   1.413       .  A
C399        C406   1.444       .  S
C400        C401   1.406       .  A
C401        C402   1.405       .  A
C401        H404   1.085       .  S
C402        C405   1.444       .  S
C405        N407   1.157       .  T
C406        N408   1.157       .  T
C409        C410   1.402       .  A
C409        C414   1.416       .  A
C410        C411   1.402       .  A
C410        H415   1.085       .  S
C411        C412   1.419       .  A
C411        C418   1.444   1_455  S
C412        C413   1.404       .  A
C413        C414   1.401       .  A
C413        H416   1.084       .  S
C414        C417   1.445       .  S
C417        N419   1.157       .  T
C418        N420   1.157       .  T
C421        C422   1.408       .  A
C421        C426   1.412       .  A
C422        C423   1.413       .  A
C422        H427   1.084       .  S
C423        C424   1.414       .  A
C423        C430   1.443       .  S
C424        C425   1.402       .  A
C425        C426   1.394       .  A
C425        H428   1.086       .  S
C426        C429   1.446       .  S
C429        N431   1.157       .  T
C430        N432   1.157       .  T
C433        C434   1.409       .  A
C433        C438   1.412       .  A
C434        C435   1.403       .  A
C434        H439   1.085       .  S
C435        C436   1.413       .  A
C435        C442   1.444       .  S
C436        C437   1.407       .  A
C437        C438   1.401       .  A
C437        H440   1.085   1_455  S
C438        C441   1.443       .  S
C441        N443   1.157   1_455  T
C442        N444   1.157       .  T
C445        C446   1.407       .  A
C445        C450   1.416       .  A
C446        C447   1.401       .  A
C446        H451   1.084       .  S
C447        C448   1.413       .  A
C447        C454   1.445       .  S
C448        C449   1.403       .  A
C449        C450   1.400       .  A
C449        H452   1.085       .  S
C450        C453   1.444       .  S
C453        N455   1.157       .  T
C454        N456   1.157       .  T
C457        C458   1.404       .  A
C457        C462   1.414       .  A
C458        C459   1.400       .  A
C458        H463   1.085       .  S
C459        C460   1.415       .  A
C459        C466   1.444       .  S
C460        C461   1.405       .  A
C461        C462   1.399       .  A
C461        H464   1.085       .  S
C462        C465   1.445       .  S
C465        N467   1.157       .  T
C466        N468   1.157       .  T
C469        C470   1.406       .  A
C469        C474   1.415       .  A
C470        C471   1.401       .  A
C470        H475   1.085       .  S
C471        C472   1.414       .  A
C471        C478   1.444       .  S
C472        C473   1.404       .  A
C473        C474   1.396       .  A
C473        H476   1.085       .  S
C474        C477   1.445       .  S
C477        N479   1.157       .  T
C478        N480   1.157       .  T
C481        C482   1.408       .  A
C481        C486   1.413       .  A
C482        C483   1.401       .  A
C482        H487   1.085       .  S
C483        C484   1.413       .  A
C483        C490   1.444       .  S
C484        C485   1.406       .  A
C485        C486   1.399       .  A
C485        H488   1.085       .  S
C486        C489   1.444       .  S
C489        N491   1.157       .  T
C490        N492   1.157       .  T
C493        C494   1.404       .  A
C493        C498   1.415       .  A
C494        C495   1.398       .  A
C494        H499   1.085       .  S
C495        C496   1.414       .  A
C495        C502   1.445       .  S
C496        C497   1.405       .  A
C497        C498   1.401       .  A
C497        H500   1.085       .  S
C498        C501   1.444       .  S
C501        N503   1.157       .  T
C502        N504   1.157       .  T
C505        C506   1.406       .  A
C505        C510   1.411       .  A
C506        C507   1.401       .  A
C506        H511   1.085       .  S
C507        C508   1.413       .  A
C507        C514   1.444       .  S
C508        C509   1.408       .  A
C509        C510   1.400       .  A
C509        H512   1.085       .  S
C510        C513   1.444       .  S
C513        N515   1.157       .  T
C514        N516   1.157       .  T
C517        C518   1.405       .  A
C517        C522   1.414       .  A
C518        C519   1.402       .  A
C518        H523   1.085       .  S
C519        C520   1.415       .  A
C519        C526   1.444       .  S
C520        C521   1.406       .  A
C521        C522   1.399       .  A
C521        H524   1.085       .  S
C522        C525   1.445       .  S
C525        N527   1.157       .  T
C526        N528   1.157       .  T
C529        C530   1.407       .  A
C529        C534   1.412       .  A
C530        C531   1.412       .  A
C530        H535   1.085       .  S
C531        C532   1.417       .  A
C531        C538   1.443       .  S
C532        C533   1.403       .  A
C533        C534   1.393       .  A
C533        H536   1.086       .  S
C534        C537   1.446       .  S
C537        N539   1.157       .  T
C538        N540   1.157       .  T
C541        C542   1.404       .  A
C541        C546   1.416       .  A
C542        C543   1.400       .  A
C542        H547   1.085       .  S
C543        C544   1.415       .  A
C543        C550   1.445       .  S
C544        C545   1.403       .  A
C545        C546   1.399       .  A
C545        H548   1.085       .  S
C546        C549   1.444       .  S
C549        N551   1.157       .  T
C550        N552   1.157       .  T
C553        C554   1.402       .  A
C553        C558   1.412       .  A
C554        C555   1.395       .  A
C554        H559   1.085       .  S
C555        C556   1.413       .  A
C555        C562   1.446       .  S
C556        C557   1.404       .  A
C557        C558   1.404       .  A
C557        H560   1.085       .  S
C558        C561   1.444       .  S
C561        N563   1.157       .  T
C562        N564   1.158       .  T
C565        C566   1.404       .  A
C565        C570   1.415       .  A
C566        C567   1.399       .  A
C566        H571   1.085       .  S
C567        C568   1.416       .  A
C567        C574   1.444       .  S
C568        C569   1.406       .  A
C569        C570   1.401       .  A
C569        H572   1.085       .  S
C570        C573   1.444       .  S
C573        N575   1.157       .  T
C574        N576   1.157       .  T
C577        C578   1.406       .  A
C577        C582   1.416       .  A
C578        C579   1.402       .  A
C578        H583   1.085       .  S
C579        C580   1.415       .  A
C579        C586   1.444       .  S
C580        C581   1.404       .  A
C581        C582   1.401       .  A
C581        H584   1.085       .  S
C582        C585   1.444       .  S
C585        N587   1.157       .  T
C586        N588   1.157       .  T
C589        C590   1.407   1_556  A
C589        C594   1.412       .  A
C590        C591   1.402       .  A
C590        H595   1.085       .  S
C591        C592   1.414       .  A
C591        C598   1.444       .  S
C592        C593   1.408       .  A
C593        C594   1.401   1_554  A
C593        H596   1.085       .  S
C594        C597   1.444       .  S
C597        N599   1.157       .  T
C598        N600   1.157       .  T
C601        C602   1.404       .  A
C601        C606   1.416       .  A
C602        C603   1.400       .  A
C602        H607   1.085       .  S
C603        C604   1.415       .  A
C603        C610   1.444       .  S
C604        C605   1.404       .  A
C605        C606   1.399       .  A
C605        H608   1.085       .  S
C606        C609   1.445       .  S
C609        N611   1.157       .  T
C610        N612   1.157       .  T
C613        C614   1.405       .  A
C613        C618   1.414       .  A
C614        C615   1.399       .  A
C614        H619   1.085       .  S
C615        C616   1.411       .  A
C615        C622   1.446       .  S
C616        C617   1.404       .  A
C617        C618   1.408       .  A
C617        H620   1.085       .  S
C618        C621   1.442       .  S
C621        N623   1.157       .  T
C622        N624   1.158       .  T
C625        C626   1.408   1_556  A
C625        C630   1.411       .  A
C626        C627   1.402       .  A
C626        H631   1.085       .  S
C627        C628   1.413       .  A
C627        C634   1.444       .  S
C628        C629   1.408       .  A
C629        C630   1.404   1_554  A
C629        H632   1.085       .  S
C630        C633   1.443       .  S
C633        N635   1.157       .  T
C634        N636   1.157       .  T
C637        C638   1.407       .  A
C637        C642   1.415       .  A
C638        C639   1.403       .  A
C638        H643   1.084       .  S
C639        C640   1.414       .  A
C639        C646   1.444       .  S
C640        C641   1.401       .  A
C641        C642   1.395       .  A
C641        H644   1.085       .  S
C642        C645   1.445       .  S
C645        N647   1.157       .  T
C646        N648   1.158       .  T
C649        C650   1.405       .  A
C649        C654   1.415       .  A
C650        C651   1.401       .  A
C650        H655   1.085       .  S
C651        C652   1.415       .  A
C651        C658   1.444       .  S
C652        C653   1.404       .  A
C653        C654   1.400       .  A
C653        H656   1.085       .  S
C654        C657   1.444       .  S
C657        N659   1.157       .  T
C658        N660   1.157       .  T
C661        C662   1.405       .  A
C661        C666   1.415       .  A
C662        C663   1.398       .  A
C662        H667   1.085       .  S
C663        C664   1.414       .  A
C663        C670   1.444       .  S
C664        C665   1.404       .  A
C665        C666   1.396       .  A
C665        H668   1.085       .  S
C666        C669   1.444       .  S
C669        N671   1.157       .  T
C670        N672   1.157       .  T
C673        C674   1.405       .  A
C673        C678   1.415   1_565  A
C674        C675   1.402       .  A
C674        H679   1.085       .  S
C675        C676   1.415       .  A
C675        C682   1.444       .  S
C676        C677   1.404   1_565  A
C677        C678   1.398       .  A
C677        H680   1.085       .  S
C678        C681   1.444       .  S
C681        N683   1.157       .  T
C682        N684   1.157       .  T
C685        C686   1.403       .  A
C685        C690   1.412       .  A
C686        C687   1.397       .  A
C686        H691   1.085       .  S
C687        C688   1.415       .  A
C687        C694   1.444       .  S
C688        C689   1.406       .  A
C689        C690   1.400       .  A
C689        H692   1.085       .  S
C690        C693   1.444       .  S
C693        N695   1.157       .  T
C694        N696   1.157       .  T
C697        C698   1.408   1_556  A
C697        C702   1.413       .  A
C698        C699   1.403       .  A
C698        H703   1.084   1_545  S
C699        C700   1.412       .  A
C699        C706   1.443   1_545  S
C700        C701   1.409       .  A
C701        C702   1.402   1_554  A
C701        H704   1.084       .  S
C702        C705   1.444       .  S
C705        N707   1.157       .  T
C706        N708   1.157       .  T
C709        C710   1.405       .  A
C709        C714   1.414       .  A
C710        C711   1.397       .  A
C710        H715   1.085       .  S
C711        C712   1.415       .  A
C711        C718   1.445       .  S
C712        C713   1.406       .  A
C713        C714   1.403       .  A
C713        H716   1.085       .  S
C714        C717   1.444       .  S
C717        N719   1.157       .  T
C718        N720   1.157       .  T
C721        C722   1.407       .  A
C721        C726   1.412       .  A
C722        C723   1.401   1_554  A
C722        H727   1.085       .  S
C723        C724   1.414       .  A
C723        C730   1.444       .  S
C724        C725   1.408   1_556  A
C725        C726   1.402       .  A
C725        H728   1.084   1_545  S
C726        C729   1.443       .  S
C729        N731   1.157   1_545  T
C730        N732   1.157       .  T
C733        C734   1.404       .  A
C733        C738   1.414       .  A
C734        C735   1.399       .  A
C734        H739   1.085       .  S
C735        C736   1.415       .  A
C735        C742   1.445       .  S
C736        C737   1.405       .  A
C737        C738   1.399       .  A
C737        H740   1.085       .  S
C738        C741   1.444       .  S
C741        N743   1.157       .  T
C742        N744   1.157       .  T
C745        C746   1.406       .  A
C745        C750   1.414       .  A
C746        C747   1.398       .  A
C746        H751   1.085       .  S
C747        C748   1.412       .  A
C747        C754   1.444       .  S
C748        C749   1.405       .  A
C749        C750   1.398       .  A
C749        H752   1.085       .  S
C750        C753   1.444       .  S
C753        N755   1.157       .  T
C754        N756   1.157       .  T
C757        C758   1.405   1_565  A
C757        C762   1.413       .  A
C758        C759   1.407       .  A
C758        H763   1.085       .  S
C759        C760   1.413   1_545  A
C759        C766   1.443       .  S
C760        C761   1.403       .  A
C761        C762   1.398       .  A
C761        H764   1.085       .  S
C762        C765   1.446       .  S
C765        N767   1.157       .  T
C766        N768   1.157       .  T
C769        C770   1.406       .  A
C769        C774   1.414       .  A
C770        C771   1.400       .  A
C770        H775   1.085       .  S
C771        C772   1.414       .  A
C771        C778   1.445       .  S
C772        C773   1.403       .  A
C773        C774   1.397       .  A
C773        H776   1.085       .  S
C774        C777   1.444       .  S
C777        N779   1.157       .  T
C778        N780   1.158       .  T
C781        C782   1.403       .  A
C781        C786   1.413       .  A
C782        C783   1.399       .  A
C782        H787   1.085       .  S
C783        C784   1.415       .  A
C783        C790   1.445       .  S
C784        C785   1.407       .  A
C785        C786   1.406       .  A
C785        H788   1.085       .  S
C786        C789   1.444       .  S
C789        N791   1.157       .  T
C790        N792   1.157       .  T
C793        C794   1.404   1_565  A
C793        C798   1.416       .  A
C794        C795   1.397       .  A
C794        H799   1.085       .  S
C795        C796   1.414   1_545  A
C795        C802   1.444       .  S
C796        C797   1.404       .  A
C797        C798   1.400       .  A
C797        H800   1.085       .  S
C798        C801   1.445       .  S
C801        N803   1.158       .  T
C802        N804   1.157       .  T
C805        C806   1.405       .  A
C805        C810   1.415       .  A
C806        C807   1.398       .  A
C806        H811   1.085       .  S
C807        C808   1.415       .  A
C807        C814   1.445       .  S
C808        C809   1.407       .  A
C809        C810   1.404       .  A
C809        H812   1.085       .  S
C810        C813   1.444       .  S
C813        N815   1.157       .  T
C814        N816   1.157       .  T
C817        C818   1.406       .  A
C817        C822   1.416       .  A
C818        C819   1.402       .  A
C818        H823   1.085       .  S
C819        C820   1.415       .  A
C819        C826   1.445       .  S
C820        C821   1.405       .  A
C821        C822   1.403       .  A
C821        H824   1.085       .  S
C822        C825   1.444       .  S
C825        N827   1.157       .  T
C826        N828   1.157       .  T
C829        C830   1.401       .  A
C829        C834   1.415       .  A
C830        C831   1.401   1_545  A
C830        H835   1.085       .  S
C831        C832   1.419   1_565  A
C831        C838   1.444       .  S
C832        C833   1.405       .  A
C833        C834   1.404       .  A
C833        H836   1.085       .  S
C834        C837   1.445       .  S
C837        N839   1.157       .  T
C838        N840   1.157       .  T
C841        C842   1.404       .  A
C841        C846   1.412       .  A
C842        C843   1.397       .  A
C842        H847   1.085       .  S
C843        C844   1.414       .  A
C843        C850   1.445       .  S
C844        C845   1.406       .  A
C845        C846   1.400       .  A
C845        H848   1.085       .  S
C846        C849   1.445       .  S
C849        N851   1.157       .  T
C850        N852   1.157       .  T
C853        C854   1.406       .  A
C853        C858   1.411       .  A
C854        C855   1.410       .  A
C854        H859   1.084       .  S
C855        C856   1.413       .  A
C855        C862   1.443       .  S
C856        C857   1.401       .  A
C857        C858   1.394       .  A
C857        H860   1.086       .  S
C858        C861   1.446       .  S
C861        N863   1.157       .  T
C862        N864   1.157       .  T
C865        C866   1.407       .  A
C865        C870   1.413       .  A
C866        C867   1.402       .  A
C866        H871   1.085       .  S
C867        C868   1.414       .  A
C867        C874   1.444       .  S
C868        C869   1.409       .  A
C869        C870   1.404       .  A
C869        H872   1.084   1_545  S
C870        C873   1.444       .  S
C873        N875   1.157   1_545  T
C874        N876   1.157       .  T
C877        C878   1.405       .  A
C877        C882   1.415       .  A
C878        C879   1.401       .  A
C878        H883   1.085       .  S
C879        C880   1.416       .  A
C879        C886   1.444       .  S
C880        C881   1.406       .  A
C881        C882   1.401       .  A
C881        H884   1.085       .  S
C882        C885   1.444       .  S
C885        N887   1.157       .  T
C886        N888   1.157       .  T
