geometry optimzed in LAMMPS
_audit_creation_date              2020-11-30 
_audit_creation_method            'lammps2cif' 
_symmetry_space_group_name_H-M    'P1' 
_symmetry_Int_Tables_number       1 
_symmetry_cell_setting            triclinic 
loop_ 
_symmetry_equiv_pos_as_xyz 
  x,y,z 
_cell_length_a                    70.83763132228411 
_cell_length_b                    70.67508772028279 
_cell_length_c                    38.228099239374295 
_cell_angle_alpha                 89.58059058911353 
_cell_angle_beta                  90.7381558379032 
_cell_angle_gamma                 124.63808933489166 
loop_ 
_atom_site_label 
_atom_site_type_symbol 
_atom_site_fract_x 
_atom_site_fract_y 
_atom_site_fract_z 
_atom_site_charge 
C1          C  0.10839045  0.31758742  0.29923435     0.03270
C2          C  0.09126605  0.31402053  0.32207846    -0.12880
C3          C  0.07569826  0.31928641  0.31140276     0.00770
C4          C  0.07799139  0.32873304  0.27805494    -0.11410
C5          C  0.09288189  0.32936277  0.25363426     0.03260
C6          C  0.10878442  0.32468438  0.26463925    -0.10830
H7          H  0.08964620  0.30644152  0.34753762     0.08850
H8          H  0.06580577  0.33249324  0.26940875     0.06380
H9          H  0.12039127  0.32513813  0.24591910     0.06230
C10         C  0.10399459  0.30677737  0.84646371     0.03270
C11         C  0.09099690  0.30925573  0.82113406    -0.12880
C12         C  0.07525407  0.31409814  0.83141248     0.00770
C13         C  0.07272502  0.31647924  0.86705069    -0.11410
C14         C  0.08443982  0.31254712  0.89249909     0.03260
C15         C  0.10041009  0.30799425  0.88226348    -0.10830
H16         H  0.09301551  0.30721824  0.79365867     0.08850
H17         H  0.06039031  0.32000864  0.87516554     0.06380
H18         H  0.10963309  0.30502062  0.90185856     0.06230
O19         O  0.97636448  0.27436942  0.06091036    -0.57680
C20         C  0.03919457  0.31086989  0.01597084     0.74950
O21         O  0.00979817  0.34487486  0.08152165    -0.58840
C22         C  0.96821766  0.27376700  0.09046335     0.74920
C23         C  0.04532826  0.32126526  0.12704315     0.77320
Cd24       Cd  0.01321084  0.31235596  0.07171225     1.37470
O25         O  0.02568414  0.29347017  0.03458017    -0.57670
O26         O  0.03755619  0.30499660  0.10545304    -0.56480
C27         C  0.00090209  0.34330973  0.05178453     0.77280
O28         O  0.03865606  0.33439738  0.12268655    -0.58860
O29         O  0.03993157  0.32884060  0.02248440    -0.57310
O30         O  0.98112969  0.29010319  0.11118481    -0.57300
O31         O  0.99915439  0.32849131  0.03108073    -0.56470
C32         C  0.84774622  0.17858429  0.17881202     0.03270
C33         C  0.86420263  0.19025556  0.15256281    -0.12880
C34         C  0.88607607  0.20946232  0.16111862     0.00770
C35         C  0.89152038  0.21692348  0.19584773    -0.11410
C36         C  0.87520322  0.20566694  0.22217633     0.03260
C37         C  0.85321168  0.18635290  0.21366719    -0.10830
H38         H  0.85992488  0.18454769  0.12563005     0.08850
H39         H  0.90849694  0.23190319  0.20233438     0.06380
H40         H  0.84045957  0.17750151  0.23389616     0.06230
C41         C  0.84729628  0.18011163  0.63562388     0.03270
C42         C  0.85680253  0.19781071  0.66062837    -0.12880
C43         C  0.87672425  0.21939388  0.65291102     0.00770
C44         C  0.88675838  0.22329971  0.62004062    -0.11410
C45         C  0.87770941  0.20578146  0.59501883     0.03260
C46         C  0.85800975  0.18399681  0.60308792    -0.10830
H47         H  0.84876867  0.19479148  0.68586851     0.08850
H48         H  0.90193468  0.24018495  0.61396561     0.06380
H49         H  0.85079492  0.17026449  0.58398181     0.06230
O50         O  0.94300726  0.24934440  0.45445922    -0.57680
C51         C  0.99413739  0.29402506  0.38626944     0.74950
O52         O  0.91579035  0.26396296  0.36977402    -0.58840
C53         C  0.92636924  0.24834501  0.46854880     0.74920
C54         C  0.95743152  0.32113450  0.42836410     0.77320
Cd55       Cd  0.94921773  0.27811818  0.40947838     1.37470
O56         O  0.98530286  0.27992438  0.41148722    -0.57670
O57         O  0.96289332  0.31053885  0.44823260    -0.56480
C58         C  0.91907466  0.25116144  0.35177567     0.77280
O59         O  0.94816027  0.31197379  0.39920261    -0.58860
O60         O  0.98297759  0.30160387  0.37413421    -0.57310
O61         O  0.92108102  0.26128398  0.45571093    -0.57300
O62         O  0.93597464  0.25065023  0.36091665    -0.56470
C63         C  0.97338945  0.43027699  0.96792835     0.03270
C64         C  0.97421170  0.41667490  0.99411180    -0.12880
C65         C  0.97831016  0.40014413  0.98505533     0.00770
C66         C  0.98101014  0.39699253  0.94988151    -0.11410
C67         C  0.98024191  0.41036905  0.92357079     0.03260
C68         C  0.97659279  0.42723895  0.93267718    -0.10830
H69         H  0.97187476  0.41908791  0.02127050     0.08850
H70         H  0.98396537  0.38402743  0.94288831     0.06380
H71         H  0.97618021  0.43787800  0.91255514     0.06230
C72         C  0.98653199  0.43860489  0.51288460     0.03270
C73         C  0.98141212  0.42205064  0.48741445    -0.12880
C74         C  0.98317902  0.40381560  0.49570351     0.00770
C75         C  0.99068964  0.40251168  0.52904356    -0.11410
C76         C  0.99549859  0.41864457  0.55482426     0.03260
C77         C  0.99388149  0.43705666  0.54647661    -0.10830
H78         H  0.97478043  0.42261212  0.46201005     0.08850
H79         H  0.99101825  0.38775761  0.53578575     0.06380
H80         H  0.99688482  0.44924100  0.56657496     0.06230
O81         O  0.96729532  0.35177133  0.78884669    -0.57680
C82         C  0.94300691  0.30130589  0.72318535     0.74950
O83         O  0.00997887  0.37798383  0.70105219    -0.58840
C84         C  0.98450963  0.37199988  0.79511925     0.74920
C85         C  0.01550903  0.33165304  0.76003802     0.77320
Cd86       Cd  0.98500315  0.34474605  0.74010238     1.37460
O87         O  0.94581651  0.31026180  0.75302723    -0.57670
O88         O  0.00358150  0.33390434  0.78159161    -0.56480
C89         C  0.99357806  0.37498154  0.68242462     0.77280
O90         O  0.01387088  0.33591846  0.72837922    -0.58860
O91         O  0.95936568  0.31221158  0.70189724    -0.57310
O92         O  0.00153917  0.37971222  0.77530630    -0.57300
O93         O  0.97379528  0.35773336  0.69003045    -0.56470
C94         C  0.84341171  0.63593944  0.67957000     0.03270
C95         C  0.86020525  0.64122340  0.65487351    -0.12880
C96         C  0.87821541  0.63928480  0.66385667     0.00770
C97         C  0.87943160  0.63211853  0.69751423    -0.11410
C98         C  0.86290043  0.62698216  0.72253814     0.03260
C99         C  0.84461944  0.62862045  0.71333236    -0.10830
H100        H  0.85950304  0.64725581  0.62906729     0.08850
H101        H  0.89385205  0.63134617  0.70465729     0.06380
H102        H  0.83180309  0.62486985  0.73253704     0.06230
C103        C  0.84132999  0.62722537  0.14618493     0.03270
C104        C  0.84963091  0.61979880  0.17267761    -0.12880
C105        C  0.86578783  0.61508407  0.16473992     0.00770
C106        C  0.87331461  0.61739745  0.13038838    -0.11410
C107        C  0.86579948  0.62544990  0.10388334     0.03260
C108        C  0.84968356  0.63036953  0.11185544    -0.10830
H109        H  0.84364684  0.61782491  0.19926158     0.08850
H110        H  0.88575144  0.61357022  0.12444517     0.06380
H111        H  0.84367291  0.63657689  0.09158022     0.06230
O112        O  0.92303544  0.64573115  0.95782091    -0.57680
C113        C  0.97322517  0.66576499  0.89564951     0.74950
O114        O  0.92433540  0.58926291  0.89487489    -0.58840
C115        C  0.90729506  0.62794917  0.97346698     0.74920
C116        C  0.89969602  0.62025087  0.85188229     0.77320
Cd117      Cd  0.92836241  0.62533412  0.91062510     1.37470
O118        O  0.95893909  0.66699266  0.91322454    -0.57670
O119        O  0.91959598  0.63807096  0.85702554    -0.56480
C120        C  0.93706954  0.59044462  0.91951075     0.77280
O121        O  0.89275484  0.60410137  0.87363604    -0.58860
O122        O  0.96716555  0.64586977  0.88643508    -0.57310
O123        O  0.90144270  0.60895089  0.96039976    -0.57300
O124        O  0.94604380  0.60784293  0.93934111    -0.56470
C125        C  0.09322736  0.76300491  0.80753011     0.03270
C126        C  0.07581693  0.75214787  0.83263781    -0.12880
C127        C  0.05434395  0.73233865  0.82370831     0.00770
C128        C  0.05023591  0.72370456  0.78960168    -0.11410
C129        C  0.06753456  0.73407606  0.76446755     0.03260
C130        C  0.08916271  0.75372203  0.77364103    -0.10830
H131        H  0.07897738  0.75904156  0.85890427     0.08850
H132        H  0.03346744  0.70855991  0.78268840     0.06380
H133        H  0.10270294  0.76190094  0.75444544     0.06230
C134        C  0.10073703  0.75318946  0.34182942     0.03270
C135        C  0.08941302  0.73396536  0.31947274    -0.12880
C136        C  0.06889303  0.71362922  0.32996103     0.00770
C137        C  0.06015727  0.71263861  0.36309665    -0.11410
C138        C  0.07167134  0.73132810  0.38608114     0.03260
C139        C  0.09186743  0.75180309  0.37517875    -0.10830
H140        H  0.09644865  0.73493499  0.29401367     0.08850
H141        H  0.04439256  0.69689853  0.37142722     0.06380
H142        H  0.10070890  0.76650683  0.39257197     0.06230
O143        O  0.99585985  0.62850063  0.58197570    -0.57680
C144        C  0.02865009  0.68914074  0.63274993     0.74950
O145        O  0.01095744  0.69679627  0.53092467    -0.58840
C146        C  0.98645077  0.62037626  0.55246046     0.74920
C147        C  0.95630945  0.65710793  0.59187200     0.77320
Cd148      Cd  0.99918867  0.66511994  0.57323823     1.37470
O149        O  0.02903814  0.67347327  0.61768898    -0.57670
O150        O  0.96684901  0.65148894  0.61151047    -0.56480
C151        C  0.02592704  0.69526723  0.51618854     0.77280
O152        O  0.96489636  0.66550985  0.56226228    -0.58860
O153        O  0.01505675  0.69356441  0.61988467    -0.57310
O154        O  0.98183229  0.63220517  0.53405518    -0.57300
O155        O  0.02861864  0.68028523  0.52841023    -0.56470
C156        C  0.95809570  0.49959677  0.00404019     0.03270
C157        C  0.95508426  0.51114893  0.97682635    -0.12880
C158        C  0.95203814  0.52854310  0.98465904     0.00770
C159        C  0.95230122  0.53456903  0.01947638    -0.11410
C160        C  0.95482783  0.52293729  0.04687740     0.03260
C161        C  0.95771012  0.50533202  0.03910349    -0.10830
H162        H  0.95512861  0.50663895  0.94981447     0.08850
H163        H  0.95017022  0.54824870  0.02531875     0.06380
H164        H  0.95974316  0.49623519  0.06011302     0.06230
C165        C  0.96598939  0.50420517  0.47581561     0.03270
C166        C  0.96929717  0.52153252  0.49824897    -0.12880
C167        C  0.96542025  0.53779337  0.48593220     0.00770
C168        C  0.95763231  0.53618022  0.45150072    -0.11410
C169        C  0.95550369  0.51976364  0.42850698     0.03260
C170        C  0.95920594  0.50343464  0.44088080    -0.10830
H171        H  0.97577869  0.52290903  0.52460436     0.08850
H172        H  0.95532666  0.54917726  0.44160947     0.06380
H173        H  0.95793955  0.49091381  0.42301438     0.06230
O174        O  0.99782791  0.62214814  0.23205996    -0.57680
C175        C  0.95650662  0.56276928  0.17902823     0.74950
O176        O  0.94533351  0.56716180  0.29823133    -0.58840
C177        C  0.00060401  0.62914478  0.26329332     0.74920
C178        C  0.92379045  0.59493121  0.23098772     0.77320
Cd179      Cd  0.95877510  0.58645752  0.24172597     1.37470
O180        O  0.97353296  0.58299887  0.18581614    -0.57670
O181        O  0.94344714  0.60742592  0.21756711    -0.56480
C182        C  0.95469294  0.55637604  0.29644884     0.77280
O183        O  0.92027150  0.57860735  0.25014625    -0.58860
O184        O  0.94050343  0.55364990  0.20110108    -0.57310
O185        O  0.98432012  0.61652640  0.28398738    -0.57300
O186        O  0.96571749  0.55925461  0.26886773    -0.56470
C187        C  0.64221216  0.76564547  0.30289865     0.03270
C188        C  0.64699755  0.75542355  0.33021234    -0.12880
C189        C  0.65093936  0.73856140  0.32266272     0.00770
C190        C  0.64987568  0.73182130  0.28802105    -0.11410
C191        C  0.64533818  0.74192837  0.26063825     0.03260
C192        C  0.64144986  0.75887002  0.26803712    -0.10830
H193        H  0.64788656  0.76073564  0.35703778     0.08850
H194        H  0.65302892  0.71884056  0.28224244     0.06380
H195        H  0.63807385  0.76686796  0.24686740     0.06230
C196        C  0.64624056  0.76933967  0.85055763     0.03270
C197        C  0.64919163  0.75862553  0.82250364    -0.12880
C198        C  0.64905585  0.73900619  0.82827256     0.00770
C199        C  0.64750901  0.73114306  0.86255035    -0.11410
C200        C  0.64547624  0.74219251  0.89093905     0.03260
C201        C  0.64451778  0.76124300  0.88488713    -0.10830
H202        H  0.65049422  0.76492983  0.79611225     0.08850
H203        H  0.64733105  0.71587761  0.86718013     0.06380
H204        H  0.64211937  0.76946367  0.90652963     0.06230
O205        O  0.63234200  0.67797388  0.13096304    -0.57680
C206        C  0.61142463  0.62723679  0.05758162     0.74950
O207        O  0.66404030  0.69933555  0.02550203    -0.58840
C208        C  0.64687984  0.69948091  0.13385494     0.74920
C209        C  0.68320873  0.66650953  0.09204767     0.77320
Cd210      Cd  0.64769978  0.67355635  0.07644430     1.37460
O211        O  0.61138888  0.63544952  0.08688966    -0.57670
O212        O  0.66664825  0.66028736  0.11217250    -0.56480
C213        C  0.64602855  0.69843894  0.01817772     0.77280
O214        O  0.68437135  0.67740854  0.06480732    -0.58860
O215        O  0.62780643  0.64057668  0.03747264    -0.57310
O216        O  0.66186970  0.70889745  0.11021116    -0.57300
O217        O  0.62904947  0.68627576  0.03807369    -0.56470
C218        C  0.51347228  0.51312122  0.50822094     0.03270
C219        C  0.53161464  0.52284238  0.48436642    -0.12880
C220        C  0.55289869  0.54283621  0.49325389     0.00770
C221        C  0.55600324  0.55276156  0.52620243    -0.11410
C222        C  0.53830962  0.54305362  0.55060688     0.03260
C223        C  0.51677306  0.52329632  0.54129906    -0.10830
H224        H  0.52919751  0.51477966  0.45918869     0.08850
H225        H  0.57268366  0.56798769  0.53328378     0.06380
H226        H  0.50283062  0.51563711  0.55980442     0.06230
C227        C  0.51008340  0.51111329  0.96302906     0.03270
C228        C  0.52413970  0.52538029  0.99072077    -0.12880
C229        C  0.54402007  0.54709395  0.98372769     0.00770
C230        C  0.54987920  0.55441542  0.94908923    -0.11410
C231        C  0.53621056  0.54046006  0.92119182     0.03260
C232        C  0.51612263  0.51869820  0.92817393    -0.10830
H233        H  0.51961773  0.51958675  0.01752726     0.08850
H234        H  0.56539314  0.57122046  0.94375687     0.06380
H235        H  0.50535107  0.50773999  0.90676370     0.06230
O236        O  0.60216603  0.58906288  0.78787031    -0.57680
C237        C  0.65642561  0.62453030  0.72108222     0.74950
O238        O  0.58314226  0.60702861  0.69243842    -0.58840
C239        C  0.58354432  0.58696100  0.79431601     0.74920
C240        C  0.62899107  0.66139210  0.75422830     0.77320
Cd241      Cd  0.61232972  0.61500307  0.73695943     1.37460
O242        O  0.64571751  0.61281145  0.74791770    -0.57670
O243        O  0.62837669  0.64765423  0.77626189    -0.56480
C244        C  0.58240285  0.59047402  0.67831309     0.77280
O245        O  0.62122841  0.65349452  0.72393193    -0.58860
O246        O  0.64618243  0.63050116  0.70147521    -0.57310
O247        O  0.57827766  0.59746151  0.77389634    -0.57300
O248        O  0.59563346  0.58551672  0.69124977    -0.56470
C249        C  0.77210535  0.64324183  0.17951963     0.03270
C250        C  0.76067866  0.64606477  0.15173872    -0.12880
C251        C  0.74325537  0.64913464  0.15874075     0.00770
C252        C  0.73734363  0.64949996  0.19327861    -0.11410
C253        C  0.74897699  0.64751149  0.22125421     0.03260
C254        C  0.76636169  0.64421135  0.21436245    -0.10830
H255        H  0.76512709  0.64558361  0.12490502     0.08850
H256        H  0.72366228  0.65169179  0.19846080     0.06380
H257        H  0.77533011  0.64238886  0.23585561     0.06230
C258        C  0.77206145  0.64788313  0.64036365     0.03270
C259        C  0.75711252  0.64593687  0.66614201    -0.12880
C260        C  0.73827110  0.64646812  0.65665184     0.00770
C261        C  0.73473333  0.64944615  0.62151039    -0.11410
C262        C  0.74961503  0.65159676  0.59571709     0.03260
C263        C  0.76838089  0.65087734  0.60511621    -0.10830
H264        H  0.75968603  0.64323360  0.69323138     0.08850
H265        H  0.71979310  0.64923783  0.61400746     0.06380
H266        H  0.77955773  0.65181442  0.58505948     0.06230
O267        O  0.64436393  0.60922804  0.39557879    -0.57680
C268        C  0.70646888  0.64869872  0.34773573     0.74950
O269        O  0.68748813  0.68561244  0.41396475    -0.58840
C270        C  0.63731658  0.60646968  0.42666856     0.74920
C271        C  0.70986525  0.65045109  0.46378058     0.77320
Cd272      Cd  0.68096936  0.64725758  0.40709226     1.37470
O273        O  0.68645123  0.63131246  0.35406477    -0.57670
O274        O  0.70482107  0.63726819  0.43792471    -0.56480
C275        C  0.67174829  0.68159849  0.39277898     0.77280
O276        O  0.70176691  0.66248164  0.46313967    -0.58860
O277        O  0.71439664  0.66552125  0.36844018    -0.57310
O278        O  0.65037836  0.62225907  0.44817939    -0.57300
O279        O  0.66029600  0.66188497  0.37891717    -0.56470
C280        C  0.42863601  0.42338013  0.00176435     0.03270
C281        C  0.41514078  0.40648517  0.97638785    -0.12880
C282        C  0.39548125  0.38525182  0.98632405     0.00770
C283        C  0.38943558  0.38105940  0.02169605    -0.11410
C284        C  0.40245320  0.39791646  0.04711228     0.03260
C285        C  0.42220541  0.41910431  0.03714730    -0.10830
H286        H  0.41982667  0.40992977  0.94906706     0.08850
H287        H  0.37414362  0.36469205  0.02941236     0.06380
H288        H  0.43239185  0.43222057  0.05668043     0.06230
C289        C  0.42666365  0.43009192  0.46996008     0.03270
C290        C  0.41012756  0.41897813  0.49624652    -0.12880
C291        C  0.38844417  0.39923142  0.48836916     0.00770
C292        C  0.38329455  0.39060550  0.45418602    -0.11410
C293        C  0.39947137  0.40172545  0.42763643     0.03260
C294        C  0.42130415  0.42143935  0.43555696    -0.10830
H295        H  0.41402293  0.42586538  0.52258395     0.08850
H296        H  0.36633844  0.37550162  0.44799243     0.06380
H297        H  0.43384771  0.43023405  0.41504490     0.06230
O298        O  0.34651194  0.36308053  0.19643538    -0.57680
C299        C  0.28376768  0.31460355  0.24465120     0.74950
O300        O  0.34260765  0.30278044  0.24480289    -0.58840
C301        C  0.35774073  0.35815138  0.17765218     0.74920
C302        C  0.35730331  0.35601183  0.29715075     0.77320
Cd303      Cd  0.33100754  0.32955035  0.23628466     1.37470
O304        O  0.29511451  0.32610105  0.21814315    -0.57670
O305        O  0.35579969  0.36531030  0.26990275    -0.56480
C306        C  0.32849699  0.28855240  0.22222208     0.77280
O307        O  0.34666925  0.33436158  0.29631458    -0.58860
O308        O  0.29416293  0.31016609  0.26670075    -0.57310
O309        O  0.35624628  0.33999088  0.18586476    -0.57300
O310        O  0.31555723  0.29311539  0.20706477    -0.56470
C311        C  0.29685793  0.17005154  0.66544777     0.03270
C312        C  0.29247533  0.18106304  0.63895243    -0.12880
C313        C  0.28954715  0.19848970  0.64762526     0.00770
C314        C  0.29115621  0.20495704  0.68260286    -0.11410
C315        C  0.29538337  0.19410139  0.70919536     0.03260
C316        C  0.29825795  0.17660848  0.70061978    -0.10830
H317        H  0.29125622  0.17603533  0.61187407     0.08850
H318        H  0.28875254  0.21834788  0.68925237     0.06380
H319        H  0.30135723  0.16801352  0.72115899     0.06230
C320        C  0.30754619  0.17509565  0.13595927     0.03270
C321        C  0.31336895  0.19202285  0.16102421    -0.12880
C322        C  0.31217132  0.21055462  0.15247822     0.00770
C323        C  0.30512350  0.21217968  0.11891738    -0.11410
C324        C  0.29948014  0.19556940  0.09349899     0.03260
C325        C  0.30057707  0.17683455  0.10210505    -0.10830
H326        H  0.31908326  0.19091444  0.18692404     0.08850
H327        H  0.30466770  0.22686077  0.11223980     0.06380
H328        H  0.29644255  0.16396960  0.08253478     0.06230
O329        O  0.30701419  0.25380510  0.84460847    -0.57680
C330        C  0.32838844  0.30228269  0.91413224     0.74950
O331        O  0.25832928  0.25691859  0.92153605    -0.58840
C332        C  0.29505324  0.23211748  0.84191011     0.74920
C333        C  0.28871615  0.22986182  0.96350370     0.77320
Cd334      Cd  0.29065635  0.25463567  0.90160555     1.37460
O335        O  0.33008765  0.28568967  0.92016455    -0.57670
O336        O  0.30652210  0.24880194  0.95421216    -0.56480
C337        C  0.25074475  0.25561735  0.89081925     0.77280
O338        O  0.27092921  0.22241303  0.94481120    -0.58860
O339        O  0.30974393  0.29696583  0.89996164    -0.57310
O340        O  0.28215687  0.22106716  0.86737095    -0.57300
O341        O  0.26126648  0.25351180  0.86638435    -0.56470
C342        C  0.17137645  0.29059403  0.80357385     0.03270
C343        C  0.17929023  0.28219395  0.82906325    -0.12880
C344        C  0.19611668  0.27847829  0.82076449     0.00770
C345        C  0.20499575  0.28319617  0.78687373    -0.11410
C346        C  0.19702028  0.29121658  0.76104955     0.03260
C347        C  0.18018717  0.29500425  0.76945331    -0.10830
H348        H  0.17231026  0.27850388  0.85521767     0.08850
H349        H  0.21799557  0.28025384  0.78038107     0.06380
H350        H  0.17394475  0.30125463  0.74962964     0.06230
C351        C  0.17511359  0.29835202  0.33528862     0.03270
C352        C  0.18623705  0.29656981  0.30665413    -0.12880
C353        C  0.20417280  0.29389361  0.31218017     0.00770
C354        C  0.20972423  0.29133325  0.34639973    -0.11410
C355        C  0.19926940  0.29371475  0.37533621     0.03260
C356        C  0.18191931  0.29734780  0.36959829    -0.10830
H357        H  0.18170758  0.29840629  0.28027744     0.08850
H358        H  0.22352857  0.28911304  0.35066079     0.06380
H359        H  0.17409934  0.29989157  0.39159156     0.06230
O360        O  0.30138787  0.32770374  0.59039712    -0.57680
C361        C  0.23901710  0.29562327  0.63046334     0.74950
O362        O  0.25368002  0.28738187  0.50778954    -0.58840
C363        C  0.30722379  0.33596673  0.55989931     0.74920
C364        C  0.27064048  0.25812733  0.58145973     0.77320
Cd365      Cd  0.26283249  0.29394110  0.57087366     1.37470
O366        O  0.25347908  0.31351556  0.61352953    -0.57670
O367        O  0.28355303  0.27810340  0.59413743    -0.56480
C368        C  0.23804883  0.29089532  0.50797700     0.77280
O369        O  0.25383220  0.25444288  0.56317506    -0.58860
O370        O  0.23529218  0.27692485  0.61942642    -0.57310
O371        O  0.29262497  0.32511318  0.53581033    -0.57300
O372        O  0.23260812  0.29421282  0.53757858    -0.56470
C373        C  0.76294097  0.09330843  0.66833918     0.03270
C374        C  0.75205564  0.07495323  0.64440041    -0.12880
C375        C  0.73186142  0.05401679  0.65382752     0.00770
C376        C  0.72286298  0.05147092  0.68724938    -0.11410
C377        C  0.73347146  0.06958864  0.71134229     0.03260
C378        C  0.75344050  0.09068767  0.70159294    -0.10830
H379        H  0.75934655  0.07690146  0.61880437     0.08850
H380        H  0.70754869  0.03505026  0.69474200     0.06380
H381        H  0.76182280  0.10485706  0.71999319     0.06230
C382        C  0.75895861  0.10030125  0.13573057     0.03270
C383        C  0.74272711  0.08626779  0.16118758    -0.12880
C384        C  0.72129010  0.06690626  0.15106652     0.00770
C385        C  0.71611741  0.06174790  0.11547953    -0.11410
C386        C  0.73235185  0.07525987  0.08995132     0.03260
C387        C  0.75382618  0.09470911  0.10004724    -0.10830
H388        H  0.74692923  0.09017064  0.18870048     0.08850
H389        H  0.69961745  0.04655774  0.10765892     0.06380
H390        H  0.76655150  0.10516798  0.08042121     0.06230
O391        O  0.67406409  0.03187022  0.85810358    -0.57680
C392        C  0.61813880  0.98348833  0.90749471     0.74950
O393        O  0.66759069  0.96789980  0.91704250    -0.58840
C394        C  0.68878071  0.03082053  0.84141692     0.74920
C395        C  0.69253521  0.02927870  0.95923112     0.77320
Cd396      Cd  0.66559964  0.00084389  0.89993327     1.37460
O397        O  0.62976379  0.99668543  0.88239721    -0.57670
O398        O  0.67192001  0.02242155  0.95413202    -0.56480
C399        C  0.66199137  0.95907724  0.88676764     0.77280
O400        O  0.70078831  0.02280776  0.93697366    -0.58860
O401        O  0.62825887  0.97772760  0.92786682    -0.57310
O402        O  0.69240542  0.01615104  0.85194094    -0.57300
O403        O  0.65804465  0.96936843  0.86379655    -0.56470
C404        C  0.63412220  0.84038338  0.81024541     0.03270
C405        C  0.64052603  0.85842634  0.83341449    -0.12880
C406        C  0.63972105  0.87686470  0.82257320     0.00770
C407        C  0.63215265  0.87706862  0.78864525    -0.11410
C408        C  0.62575975  0.85922510  0.76511380     0.03260
C409        C  0.62646281  0.84063719  0.77620367    -0.10830
H410        H  0.64692933  0.85851533  0.85936013     0.08850
H411        H  0.63218939  0.89174733  0.78002339     0.06380
H412        H  0.62194402  0.82691381  0.75808464     0.06230
C413        C  0.62769426  0.83615070  0.33752017     0.03270
C414        C  0.63187110  0.84425927  0.37221839    -0.12880
C415        C  0.62847010  0.86122211  0.38187870     0.00770
C416        C  0.62084757  0.86998349  0.35676411    -0.11410
C417        C  0.61644025  0.86203144  0.32220201     0.03260
C418        C  0.61992219  0.84509296  0.31256143    -0.10830
H419        H  0.63771261  0.83736620  0.39161410     0.08850
H420        H  0.61823425  0.88310942  0.36425246     0.06380
H421        H  0.61662409  0.83891039  0.28583854     0.06230
O422        O  0.64915792  0.91589824  0.53224823    -0.57680
C423        C  0.66612231  0.96876398  0.58892052     0.74950
O424        O  0.59664686  0.92854964  0.59112613    -0.58840
C425        C  0.63181847  0.90044095  0.51498348     0.74920
C426        C  0.62029164  0.89275061  0.63145276     0.77320
Cd427      Cd  0.62701406  0.92279734  0.57392696     1.37460
O428        O  0.66152422  0.96149833  0.55771361    -0.57670
O429        O  0.63980070  0.90931758  0.62147169    -0.56480
C430        C  0.59136711  0.92988444  0.55990901     0.77280
O431        O  0.60330878  0.88941005  0.61409601    -0.58860
O432        O  0.65241945  0.95527590  0.61210542    -0.57310
O433        O  0.61255271  0.89506716  0.52570099    -0.57300
O434        O  0.60260561  0.92833588  0.53610949    -0.56470
C435        C  0.50675638  0.95918581  0.47341394     0.03270
C436        C  0.51613689  0.95248865  0.49929913    -0.12880
C437        C  0.53333481  0.94934217  0.49070445     0.00770
C438        C  0.54098132  0.95267359  0.45621320    -0.11410
C439        C  0.53191183  0.95938425  0.43011064     0.03260
C440        C  0.51473659  0.96269205  0.43876953    -0.10830
H441        H  0.51010109  0.94977873  0.52596389     0.08850
H442        H  0.55421004  0.95007461  0.44963114     0.06380
H443        H  0.50764714  0.96795477  0.41877043     0.06230
C444        C  0.50977158  0.96676963  0.99961956     0.03270
C445        C  0.52131275  0.96504035  0.97167779    -0.12880
C446        C  0.53961289  0.96310619  0.97816050     0.00770
C447        C  0.54530643  0.96133650  0.01270632    -0.11410
C448        C  0.53416612  0.96335120  0.04102381     0.03260
C449        C  0.51639209  0.96625346  0.03429144    -0.10830
H450        H  0.51682732  0.96638873  0.94500757     0.08850
H451        H  0.55946147  0.95974120  0.01763377     0.06380
H452        H  0.50799562  0.96845268  0.05580234     0.06230
O453        O  0.58776088  0.98029209  0.28177544    -0.57680
C454        C  0.64130341  0.99647607  0.22167234     0.74950
O455        O  0.57970630  0.91790325  0.23847432    -0.58840
C456        C  0.57269793  0.96258635  0.29844494     0.74920
C457        C  0.57044829  0.95968487  0.17531888     0.77320
Cd458      Cd  0.59460465  0.95946296  0.23693558     1.37470
O459        O  0.63278350  0.99525737  0.25121680    -0.57670
O460        O  0.57759683  0.97465891  0.19906417    -0.56480
C461        C  0.59768977  0.92101503  0.25201103     0.77280
O462        O  0.57322692  0.94372493  0.18061152    -0.58860
O463        O  0.62850820  0.98049746  0.20024344    -0.57310
O464        O  0.56786233  0.94364475  0.28663804    -0.57300
O465        O  0.61425046  0.94168491  0.25735341    -0.56470
C466        C  0.31644892  0.10230174  0.17988013     0.03270
C467        C  0.31177119  0.08536429  0.15551103    -0.12880
C468        C  0.31308116  0.06708862  0.16560417     0.00770
C469        C  0.31945975  0.06598607  0.19995259    -0.11410
C470        C  0.32328667  0.08221679  0.22489843     0.03260
C471        C  0.32199985  0.10061364  0.21478384    -0.10830
H472        H  0.30644815  0.08604661  0.12909080     0.08850
H473        H  0.31981771  0.05142919  0.20794389     0.06380
H474        H  0.32457036  0.11306202  0.23404911     0.06230
C475        C  0.30850711  0.09729464  0.63314176     0.03270
C476        C  0.31596685  0.08917801  0.65999236    -0.12880
C477        C  0.31975137  0.07217278  0.65285243     0.00770
C478        C  0.31607975  0.06333100  0.61898585    -0.11410
C479        C  0.30818275  0.07075811  0.59210995     0.03260
C480        C  0.30436482  0.08781684  0.59927529    -0.10830
H481        H  0.31901093  0.09621430  0.68615063     0.08850
H482        H  0.31932900  0.05038110  0.61351648     0.06380
H483        H  0.29844067  0.09385971  0.57859704     0.06230
O484        O  0.29207100  0.01092124  0.44884998    -0.57680
C485        C  0.27931073  0.96222386  0.38231779     0.74950
O486        O  0.33361291  0.03023731  0.35201170    -0.58840
C487        C  0.30882029  0.02790800  0.46514343     0.74920
C488        C  0.35366531  0.00382621  0.42501176     0.77320
Cd489      Cd  0.31621752  0.00764630  0.40634147     1.37470
O490        O  0.28288229  0.96662065  0.41467164    -0.57670
O491        O  0.33875781  0.00053452  0.44664060    -0.56480
C492        C  0.32376737  0.04056528  0.35328947     0.77280
O493        O  0.35171683  0.00920491  0.39423254    -0.58860
O494        O  0.29183127  0.97874546  0.36185074    -0.57310
O495        O  0.32868160  0.03503133  0.45447561    -0.57300
O496        O  0.31176406  0.03666010  0.38000773    -0.56470
C497        C  0.18197213  0.83911707  0.29618254     0.03270
C498        C  0.19560444  0.85666057  0.32076569    -0.12880
C499        C  0.21436042  0.87822371  0.30965627     0.00770
C500        C  0.21910842  0.88207133  0.27385763    -0.11410
C501        C  0.20648262  0.86445554  0.24945768     0.03260
C502        C  0.18780821  0.84294171  0.26053711    -0.10830
H503        H  0.19161616  0.85349081  0.34833434     0.08850
H504        H  0.23338697  0.89877696  0.26497176     0.06380
H505        H  0.17775320  0.82935617  0.24158240     0.06230
C506        C  0.18122545  0.84608394  0.84217187     0.03270
C507        C  0.19835032  0.85712024  0.81657806    -0.12880
C508        C  0.21970104  0.87730720  0.82493039     0.00770
C509        C  0.22378639  0.88635715  0.85874680    -0.11410
C510        C  0.20712184  0.87532549  0.88460605     0.03260
C511        C  0.18568392  0.85521095  0.87624270    -0.10830
H512        H  0.19515208  0.84990835  0.79052728     0.08850
H513        H  0.24045055  0.90176912  0.86533798     0.06380
H514        H  0.17269757  0.84653025  0.89619074     0.06230
O515        O  0.31473887  0.94124163  0.08647781    -0.57680
C516        C  0.25362605  0.90997789  0.12515020     0.74950
O517        O  0.28504206  0.97977846  0.06227184    -0.58840
C518        C  0.32793086  0.95652179  0.06455392     0.74920
C519        C  0.25292794  0.92123654  0.01213308     0.77320
Cd520      Cd  0.28179367  0.94345283  0.07262956     1.37470
O521        O  0.26404890  0.90589055  0.10309545    -0.57670
O522        O  0.27072336  0.92161846  0.01818852    -0.56480
C523        C  0.29051202  0.98629261  0.09377548     0.77280
O524        O  0.24896403  0.93227822  0.03316119    -0.58860
O525        O  0.25697053  0.92951531  0.12325392    -0.57310
O526        O  0.31993413  0.96577337  0.04716327    -0.57300
O527        O  0.29225751  0.97330616  0.11447143    -0.56470
C528        C  0.43603294  0.97192505  0.51290556     0.03270
C529        C  0.42725656  0.97948359  0.48737327    -0.12880
C530        C  0.41042790  0.98314880  0.49621454    -0.00240
C531        C  0.40243424  0.97924243  0.53054946    -0.11410
C532        C  0.41130948  0.97220987  0.55639192     0.03260
C533        C  0.42809094  0.96840319  0.54755904    -0.10830
H534        H  0.43357783  0.98259571  0.46084264     0.08850
H535        H  0.38947758  0.98217588  0.53741233     0.06380
H536        H  0.43511058  0.96303309  0.56750805     0.06230
C537        C  0.43930159  0.98189488  0.97179553     0.03270
C538        C  0.42744982  0.98072389  0.00170864    -0.12880
C539        C  0.41055390  0.98505386  0.99913406     0.00770
C540        C  0.40692782  0.99241986  0.96721745    -0.11410
C541        C  0.41656495  0.99103352  0.93628068     0.03260
C542        C  0.43310395  0.98593515  0.93888044    -0.10830
H543        H  0.43058079  0.97537574  0.02648628     0.08850
H544        H  0.39421074  0.99636261  0.96577384     0.06380
H545        H  0.44076073  0.98457843  0.91554421     0.06230
O546        O  0.35735545  0.95821807  0.70411505    -0.57680
C547        C  0.30286225  0.94188531  0.75613087     0.74950
O548        O  0.37865380  0.00662420  0.78594247    -0.58840
C549        C  0.37188090  0.97484802  0.68510959     0.74920
C550        C  0.34139933  0.01641935  0.72410749     0.77320
Cd551      Cd  0.34868878  0.98112806  0.74108156     1.37460
O552        O  0.30931403  0.94693156  0.72470800    -0.57670
O553        O  0.34485343  0.00595671  0.70116939    -0.56480
C554        C  0.37720429  0.99004825  0.80175118     0.77280
O555        O  0.34104724  0.01057056  0.75556606    -0.58860
O556        O  0.31701974  0.95517952  0.77926269    -0.57310
O557        O  0.37583522  0.99419922  0.69258559    -0.57300
O558        O  0.36444402  0.97044505  0.78786636    -0.56470
C559        C  0.38283154  0.97825383  0.89598830    -0.01710
C560        C  0.40696851  0.99197362  0.90166958     0.07970
C561        C  0.42142458  0.00635983  0.87418015    -0.01820
C562        C  0.41191160  0.00599881  0.84121241    -0.01830
C563        C  0.38794976  0.99249811  0.83626694     0.08100
C564        C  0.37353706  0.97963312  0.86426451    -0.02020
Br565      Br  0.34071127  0.96453400  0.85962455    -0.00570
Br566      Br  0.36171649  0.95564477  0.92962474    -0.00640
Br567      Br  0.43156079  0.02320321  0.80241195    -0.00600
Br568      Br  0.45412059  0.02722677  0.88150947    -0.00590
C569        C  0.40634738  0.98972206  0.64712337    -0.01710
C570        C  0.38334405  0.97202498  0.65519069     0.07970
C571        C  0.37100249  0.95259925  0.63287032    -0.01820
C572        C  0.38112055  0.95172539  0.60193140    -0.01830
C573        C  0.40334069  0.97027083  0.59270748     0.08100
C574        C  0.41609877  0.98900265  0.61572429    -0.02020
Br575      Br  0.44636266  0.01463814  0.60279571    -0.00570
Br576      Br  0.42489730  0.01510889  0.67895804    -0.00640
Br577      Br  0.36417409  0.92566474  0.57080826    -0.00600
Br578      Br  0.33948968  0.92798499  0.64219453    -0.00590
C579        C  0.37417453  0.95320497  0.02534681    -0.01710
C580        C  0.39269970  0.97663448  0.02601768     0.07970
C581        C  0.39124486  0.99230752  0.04619696    -0.01820
C582        C  0.37036012  0.98516955  0.06206653    -0.01830
C583        C  0.35101872  0.96242552  0.05745047     0.08100
C584        C  0.35323659  0.94617305  0.04062752    -0.02020
Br585      Br  0.32677203  0.91495379  0.03435772    -0.00570
Br586      Br  0.37651613  0.93101521  0.00036730    -0.00640
Br587      Br  0.36786163  0.00657586  0.08901972    -0.00600
Br588      Br  0.41757806  0.02362549  0.05050084    -0.00590
C589        C  0.21924206  0.87377264  0.94559717    -0.01710
C590        C  0.21355503  0.88457817  0.92063584     0.07970
C591        C  0.21823520  0.90640106  0.92792258    -0.01820
C592        C  0.23037369  0.91825308  0.95858528    -0.01830
C593        C  0.23752432  0.90806728  0.98233409     0.08100
C594        C  0.23086534  0.88533544  0.97660383    -0.02020
Br595      Br  0.23751085  0.86982595  0.01139118    -0.00570
Br596      Br  0.21295982  0.84393099  0.93619149    -0.00640
Br597      Br  0.23884682  0.94913727  0.96617633    -0.00600
Br598      Br  0.20880473  0.92036638  0.89487922    -0.00590
C599        C  0.23908935  0.90288935  0.77296527    -0.01710
C600        C  0.23881780  0.88894374  0.79981126     0.07970
C601        C  0.25871259  0.88957589  0.80713557    -0.01820
C602        C  0.27943027  0.90593901  0.79070261    -0.01830
C603        C  0.28027188  0.92148709  0.76636864     0.08100
C604        C  0.25983507  0.91909839  0.75603428    -0.02020
Br605      Br  0.26064942  0.93949123  0.72134955    -0.00570
Br606      Br  0.21159605  0.90126333  0.76170552    -0.00640
Br607      Br  0.30690671  0.90754194  0.80246346    -0.00600
Br608      Br  0.25776192  0.86878128  0.84133643    -0.00590
C609        C  0.24511891  0.88113054  0.17228384    -0.01710
C610        C  0.23837129  0.89322489  0.15214246     0.07970
C611        C  0.21772620  0.89093183  0.16012473    -0.01820
C612        C  0.20574407  0.87938265  0.19067951    -0.01830
C613        C  0.21384206  0.86937668  0.21263897     0.08100
C614        C  0.23258199  0.86892982  0.20222605    -0.02020
Br615      Br  0.24172412  0.85262476  0.23040489    -0.00570
Br616      Br  0.27271146  0.88304533  0.16152636    -0.00640
Br617      Br  0.17913250  0.87859249  0.20389275    -0.00600
Br618      Br  0.20577117  0.90367281  0.12937921    -0.00590
C619        C  0.40394129  0.01260065  0.47581195    -0.01710
C620        C  0.40072838  0.99121673  0.47045551     0.07970
C621        C  0.38491193  0.97600796  0.44487602    -0.01820
C622        C  0.37080044  0.98120498  0.42734278    -0.01830
C623        C  0.37217641  0.00132076  0.43582262     0.08100
C624        C  0.38945221  0.01749676  0.45887913    -0.02020
Br625      Br  0.39249268  0.04588080  0.46835716    -0.00570
Br626      Br  0.42752280  0.03465433  0.50773944    -0.00640
Br627      Br  0.34826010  0.95977601  0.39405233    -0.00600
Br628      Br  0.38086436  0.94703208  0.43633532    -0.00590
C629        C  0.26975635  0.92809787  0.34781702    -0.01710
C630        C  0.26223085  0.93893600  0.36853928     0.07970
C631        C  0.23855149  0.92804213  0.37396407    -0.01820
C632        C  0.22245143  0.90743181  0.35603295    -0.01830
C633        C  0.23012861  0.89695033  0.33449606     0.08100
C634        C  0.25383718  0.90660531  0.33266758    -0.02020
Br635      Br  0.26468241  0.89034414  0.30941072    -0.00570
Br636      Br  0.30189901  0.94311042  0.33834877    -0.00640
Br637      Br  0.19018840  0.89482166  0.35891040    -0.00600
Br638      Br  0.22824143  0.94242446  0.40343969    -0.00590
C639        C  0.31926130  0.06329256  0.49799669    -0.01710
C640        C  0.30568029  0.03904067  0.49520974     0.07970
C641        C  0.29020422  0.02569068  0.52221444    -0.01820
C642        C  0.28940747  0.03647083  0.55248731    -0.01830
C643        C  0.30472140  0.06052565  0.55676198     0.08100
C644        C  0.31917429  0.07396696  0.52893961    -0.02020
Br645      Br  0.34027101  0.10686705  0.53400801    -0.00570
Br646      Br  0.33783206  0.08211044  0.45915925    -0.00640
Br647      Br  0.26764024  0.01818062  0.58879789    -0.00600
Br648      Br  0.27151234  0.99251483  0.51971396    -0.00590
C649        C  0.34965598  0.06756463  0.67695092    -0.01710
C650        C  0.32762252  0.06298668  0.67986454     0.07970
C651        C  0.31168150  0.04579571  0.70305062    -0.01820
C652        C  0.31690268  0.03157343  0.72028663    -0.01830
C653        C  0.33796083  0.03444568  0.71391314     0.08100
C654        C  0.35476533  0.05320834  0.69371705    -0.02020
Br655      Br  0.38455762  0.05874270  0.68805648    -0.00570
Br656      Br  0.37226011  0.09268088  0.64800089    -0.00640
Br657      Br  0.29429582  0.00673132  0.74956769    -0.00600
Br658      Br  0.28191943  0.04032584  0.70843585    -0.00590
C659        C  0.30491484  0.05332355  0.31273678    -0.01710
C660        C  0.32504304  0.05526636  0.32417049     0.07970
C661        C  0.34569694  0.06980791  0.30571531    -0.01820
C662        C  0.34568959  0.08055500  0.27448625    -0.01830
C663        C  0.32524674  0.07727022  0.26196906     0.08100
C664        C  0.30518526  0.06455289  0.28203862    -0.02020
Br665      Br  0.27735513  0.06079769  0.26582865    -0.00570
Br666      Br  0.27596118  0.03313562  0.33616921    -0.00640
Br667      Br  0.37338745  0.09903410  0.24774640    -0.00600
Br668      Br  0.37406427  0.07511165  0.32294150    -0.00590
C669        C  0.31841205  0.04921984  0.11348869    -0.01710
C670        C  0.30511796  0.04737274  0.14214248     0.07970
C671        C  0.28512602  0.02586956  0.15094555    -0.01820
C672        C  0.27979402  0.00596402  0.13369374    -0.01830
C673        C  0.29401228  0.00754632  0.10683222     0.08100
C674        C  0.31272156  0.02923512  0.09558268    -0.02020
Br675      Br  0.33151071  0.03136892  0.05760452    -0.00570
Br676      Br  0.34517054  0.07879597  0.10035168    -0.00640
Br677      Br  0.25316130  0.97634626  0.14737796    -0.00600
Br678      Br  0.26514625  0.02359086  0.18712032    -0.00590
C679        C  0.53703280  0.94560164  0.13438454    -0.01710
C680        C  0.56046292  0.96147794  0.14235335     0.07970
C681        C  0.57470039  0.97911053  0.11845188    -0.01820
C682        C  0.56568423  0.98055450  0.08630845    -0.01830
C683        C  0.54247979  0.96381219  0.07721930     0.08100
C684        C  0.52805333  0.94659560  0.10177266    -0.02020
Br685      Br  0.49628566  0.92363812  0.09036973    -0.00570
Br686      Br  0.51730672  0.92271238  0.16853297    -0.00640
Br687      Br  0.58521400  0.00589042  0.05507492    -0.00600
Br688      Br  0.60698476  0.00059946  0.12898712    -0.00590
C689        C  0.46948936  0.95195729  0.98261459    -0.01710
C690        C  0.49173567  0.97061659  0.99205432     0.07970
C691        C  0.49712783  0.99311911  0.99226855    -0.01820
C692        C  0.48009914  0.99685991  0.98403966    -0.01830
C693        C  0.45768612  0.97813453  0.97553195     0.08100
C694        C  0.45250086  0.95573158  0.97414416    -0.02020
Br695      Br  0.42221032  0.93028479  0.96051200    -0.00570
Br696      Br  0.46226332  0.92120171  0.98213002    -0.00640
Br697      Br  0.48734110  0.02762716  0.98442090    -0.00600
Br698      Br  0.52785629  0.01879506  0.00374514    -0.00590
C699        C  0.46556167  0.94604403  0.47357364    -0.01710
C700        C  0.48865485  0.96259470  0.48295124     0.07970
C701        C  0.49436794  0.98202806  0.50258909    -0.01820
C702        C  0.47712070  0.98492953  0.51271095    -0.01830
C703        C  0.45404364  0.96841179  0.50329819     0.08100
C704        C  0.44830685  0.94896174  0.48367933    -0.02020
Br705      Br  0.41669732  0.92600454  0.47141798    -0.00570
Br706      Br  0.45747045  0.91899129  0.44783228    -0.00640
Br707      Br  0.48519620  0.01190312  0.53866423    -0.00600
Br708      Br  0.52595569  0.00501167  0.51491362    -0.00590
C709        C  0.57433631  0.98094846  0.35588961    -0.01710
C710        C  0.56144352  0.96375646  0.33023035     0.07970
C711        C  0.53783132  0.94690292  0.33595956    -0.01820
C712        C  0.52775163  0.94616173  0.36796391    -0.01830
C713        C  0.54090713  0.96269439  0.39406305     0.08100
C714        C  0.56396848  0.98054676  0.38738742    -0.02020
Br715      Br  0.58152402  0.00417848  0.42219809    -0.00570
Br716      Br  0.60673289  0.00403955  0.34990628    -0.00640
Br717      Br  0.49627950  0.92149133  0.37693104    -0.00600
Br718      Br  0.51888150  0.92490479  0.29984109    -0.00590
C719        C  0.53905323  0.92023659  0.51509445    -0.01710
C720        C  0.54381782  0.94244842  0.51696946     0.07970
C721        C  0.56173210  0.95914699  0.53887250    -0.01820
C722        C  0.57627792  0.95432500  0.55600072    -0.01830
C723        C  0.57300364  0.93293282  0.55079596     0.08100
C724        C  0.55373881  0.91553387  0.53177957    -0.02020
Br725      Br  0.54816220  0.88556840  0.52730013    -0.00570
Br726      Br  0.51318743  0.89676761  0.48772035    -0.00640
Br727      Br  0.60198353  0.97771135  0.58366244    -0.00600
Br728      Br  0.56767729  0.98927080  0.54267458    -0.00590
C729        C  0.61650811  0.85611375  0.44454240    -0.01710
C730        C  0.63224588  0.86993156  0.41824677     0.07970
C731        C  0.64970379  0.89314952  0.42538446    -0.01820
C732        C  0.65027450  0.90306295  0.45757126    -0.01830
C733        C  0.63366243  0.88954461  0.48330736     0.08100
C734        C  0.61743485  0.86578073  0.47715229    -0.02020
Br735      Br  0.59643734  0.84619731  0.51341192    -0.00570
Br736      Br  0.59254488  0.82430157  0.43501288    -0.00640
Br737      Br  0.67258542  0.93566122  0.46440485    -0.00600
Br738      Br  0.67246465  0.91152750  0.39030242    -0.00590
C739        C  0.58324274  0.88493459  0.28643146    -0.01710
C740        C  0.59926500  0.90174560  0.26282835     0.07970
C741        C  0.61844707  0.90176344  0.25328143    -0.01820
C742        C  0.62339667  0.88744155  0.27080157    -0.01830
C743        C  0.60854532  0.87225586  0.29694773     0.08100
C744        C  0.58772839  0.86998125  0.30297861    -0.02020
Br745      Br  0.56586354  0.84694945  0.33529631    -0.00570
Br746      Br  0.55624429  0.88369057  0.29890643    -0.00640
Br747      Br  0.65154855  0.89022087  0.26107921    -0.00600
Br748      Br  0.63774340  0.92114525  0.21575234    -0.00590
C749        C  0.63619766  0.86596767  0.70161418    -0.01710
C750        C  0.62068689  0.86184428  0.72826423     0.07970
C751        C  0.60249302  0.86409391  0.72078247    -0.01820
C752        C  0.60134155  0.87296905  0.68827962    -0.01830
C753        C  0.61800182  0.87884918  0.66251566     0.08100
C754        C  0.63446358  0.87385187  0.66860520    -0.02020
Br755      Br  0.65485552  0.87784377  0.63171061    -0.00570
Br756      Br  0.66135607  0.86315082  0.71103802    -0.00640
Br757      Br  0.57822623  0.87905796  0.68108429    -0.00600
Br758      Br  0.57965278  0.85582492  0.75592091    -0.00590
C759        C  0.58971347  0.99311328  0.91702088    -0.01710
C760        C  0.59451949  0.97633149  0.91474058     0.07970
C761        C  0.57792513  0.95359217  0.92556381    -0.01820
C762        C  0.55823836  0.94848457  0.94314013    -0.01830
C763        C  0.55516172  0.96610015  0.94993730     0.08100
C764        C  0.57010246  0.98803431  0.93483700    -0.02020
Br765      Br  0.56544367  0.01212261  0.94194576    -0.00570
Br766      Br  0.61117682  0.02394210  0.89969328    -0.00640
Br767      Br  0.53598796  0.91769396  0.95965127    -0.00600
Br768      Br  0.58235973  0.92954203  0.91693610    -0.00590
C769        C  0.67381659  0.93881540  0.85034773    -0.01710
C770        C  0.66015743  0.93795174  0.87756192     0.07970
C771        C  0.64238404  0.91657756  0.89126334    -0.01820
C772        C  0.63637126  0.89610898  0.87465590    -0.01830
C773        C  0.64865100  0.89718512  0.84509118     0.08100
C774        C  0.66829711  0.91842157  0.83448862    -0.02020
Br775      Br  0.68719879  0.91957114  0.79739808    -0.00570
Br776      Br  0.69966127  0.96810206  0.83402702    -0.00640
Br777      Br  0.61019438  0.86691120  0.89046638    -0.00600
Br778      Br  0.62518978  0.91541687  0.93086387    -0.00590
C779        C  0.72027220  0.03945495  0.00929314    -0.01710
C780        C  0.70594343  0.04378378  0.98988861     0.07970
C781        C  0.70350449  0.06132975  0.00113729    -0.01820
C782        C  0.71360723  0.07292207  0.03290098    -0.01830
C783        C  0.72664921  0.06752802  0.05315396     0.08100
C784        C  0.73075790  0.05151438  0.04062156    -0.02020
Br785      Br  0.74986463  0.04529575  0.06764856    -0.00570
Br786      Br  0.72402824  0.01556889  0.99535273    -0.00640
Br787      Br  0.70895584  0.09565798  0.04965201    -0.00600
Br788      Br  0.68664800  0.06994703  0.97305016    -0.00590
C789        C  0.69137257  0.05618233  0.19625683    -0.01710
C790        C  0.70443572  0.05064736  0.17698420     0.07970
C791        C  0.69916336  0.02823575  0.17848870    -0.01820
C792        C  0.67923466  0.01075098  0.19537694    -0.01830
C793        C  0.66471808  0.01565286  0.21162733     0.08100
C794        C  0.67157515  0.03869564  0.21388687    -0.02020
Br795      Br  0.65289560  0.04614882  0.23817721    -0.00570
Br796      Br  0.69958666  0.08729947  0.19616630    -0.00640
Br797      Br  0.67179617  0.98000524  0.19562589    -0.00600
Br798      Br  0.71899673  0.02140587  0.15628083    -0.00590
C799        C  0.72495666  0.05555280  0.80806361    -0.01710
C800        C  0.70122217  0.04554900  0.81088950     0.07970
C801        C  0.68931169  0.04755204  0.78283429    -0.01820
C802        C  0.70073293  0.05782167  0.75123333    -0.01830
C803        C  0.72378517  0.06528600  0.74705053     0.08100
C804        C  0.73610469  0.06492326  0.77606446    -0.02020
Br805      Br  0.76763172  0.07507772  0.77162217    -0.00570
Br806      Br  0.74227924  0.05625463  0.84816425    -0.00640
Br807      Br  0.68457762  0.06095689  0.71301186    -0.00600
Br808      Br  0.65687907  0.03425795  0.78600805    -0.00590
C809        C  0.71880067  0.01409825  0.63905404    -0.01710
C810        C  0.71980156  0.03399936  0.62997677     0.07970
C811        C  0.70579169  0.03310568  0.60256160    -0.01820
C812        C  0.68922312  0.01185950  0.58674806    -0.01830
C813        C  0.68654977  0.99155973  0.59873934     0.08100
C814        C  0.70208191  0.99288787  0.62370370    -0.02020
Br815      Br  0.70000153  0.96544732  0.63767934    -0.00570
Br816      Br  0.73966735  0.01582435  0.67399614    -0.00640
Br817      Br  0.66879280  0.01028510  0.55121597    -0.00600
Br818      Br  0.70787460  0.06055285  0.58891957    -0.00590
C819        C  0.20365974  0.27745721  0.46916562    -0.01710
C820        C  0.22755080  0.29215373  0.47506356     0.07970
C821        C  0.24164102  0.30855144  0.44947416    -0.01820
C822        C  0.23196680  0.31022731  0.41827248    -0.01830
C823        C  0.20830966  0.29432989  0.41103292     0.08100
C824        C  0.19410716  0.27812784  0.43689207    -0.02020
Br825      Br  0.16183572  0.25593389  0.42763873    -0.00570
Br826      Br  0.18421610  0.25549437  0.50455182    -0.00640
Br827      Br  0.25120078  0.33511348  0.38608567    -0.00600
Br828      Br  0.27435780  0.32914137  0.45705999    -0.00590
C829        C  0.20379935  0.27933271  0.66723401    -0.01710
C830        C  0.22736840  0.29644810  0.66190286     0.07970
C831        C  0.23995387  0.31362705  0.68769316    -0.01820
C832        C  0.22933513  0.31291358  0.71905625    -0.01830
C833        C  0.20632198  0.29485875  0.72528342     0.08100
C834        C  0.19341668  0.27840099  0.69899430    -0.02020
Br835      Br  0.16183999  0.25370711  0.70742461    -0.00570
Br836      Br  0.18541903  0.25724288  0.63093598    -0.00640
Br837      Br  0.24643599  0.33632412  0.75430698    -0.00600
Br838      Br  0.27229150  0.33709349  0.68207161    -0.00590
C839        C  0.23134350  0.27627946  0.89377453    -0.01710
C840        C  0.23122218  0.25722999  0.88253486     0.07970
C841        C  0.21480639  0.24213056  0.85745888    -0.01820
C842        C  0.20130145  0.24796841  0.83980292    -0.01830
C843        C  0.20454480  0.26918594  0.84662707     0.08100
C844        C  0.21849232  0.28267549  0.87512935    -0.02020
Br845      Br  0.22189274  0.31105752  0.88637661    -0.00570
Br846      Br  0.24981720  0.29431885  0.93325433    -0.00640
Br847      Br  0.17906327  0.22746022  0.80500759    -0.00600
Br848      Br  0.21100007  0.21351090  0.84706281    -0.00590
C849        C  0.29433359  0.12001993  0.17703780    -0.01710
C850        C  0.31422411  0.12102021  0.16881764     0.07970
C851        C  0.33147489  0.13929407  0.14840867    -0.01820
C852        C  0.32906264  0.15677146  0.13691631    -0.01830
C853        C  0.30931244  0.15590422  0.14556534     0.08100
C854        C  0.29197171  0.13753623  0.16566531    -0.02020
Br855      Br  0.26497060  0.13644887  0.17755348    -0.00570
Br856      Br  0.26991851  0.09426896  0.20275319    -0.00640
Br857      Br  0.35315456  0.18232030  0.11038918    -0.00600
Br858      Br  0.35853318  0.14048055  0.13659423    -0.00590
C859        C  0.30836443  0.21619569  0.99981378    -0.01710
C860        C  0.28924160  0.21733427  0.99441082     0.07970
C861        C  0.27175270  0.20785151  0.01972471    -0.01820
C862        C  0.27419590  0.19874005  0.05106137    -0.01830
C863        C  0.29423512  0.19944864  0.05757232     0.08100
C864        C  0.31104359  0.20770418  0.03151379    -0.02020
Br865      Br  0.33879697  0.20930327  0.04028648    -0.00570
Br866      Br  0.33103529  0.22606633  0.96369265    -0.00640
Br867      Br  0.25052028  0.18603071  0.08597251    -0.00600
Br868      Br  0.24538514  0.20905997  0.01332172    -0.00590
C869        C  0.27464768  0.19322639  0.76199844    -0.01710
C870        C  0.29557692  0.20081947  0.74587621     0.07970
C871        C  0.31643227  0.21727769  0.76272849    -0.01820
C872        C  0.31636336  0.22696777  0.79483522    -0.01830
C873        C  0.29537336  0.22029902  0.81014886     0.08100
C874        C  0.27448620  0.20290051  0.79395368    -0.02020
Br875      Br  0.24537700  0.19341062  0.81354737    -0.00570
Br876      Br  0.24610129  0.17009429  0.73925296    -0.00640
Br877      Br  0.34506756  0.24905534  0.81803103    -0.00600
Br878      Br  0.34505034  0.22720816  0.74087544    -0.00590
C879        C  0.25669935  0.21768769  0.59902445    -0.01710
C880        C  0.27488962  0.24018150  0.58920473     0.07970
C881        C  0.29769572  0.24635355  0.59126942    -0.01820
C882        C  0.30246913  0.23161299  0.60770219    -0.01830
C883        C  0.28446377  0.21033042  0.62104154     0.08100
C884        C  0.26157352  0.20279651  0.61478179    -0.02020
Br885      Br  0.23701914  0.17261041  0.63038818    -0.00570
Br886      Br  0.22514340  0.20768584  0.59433315    -0.00640
Br887      Br  0.33376400  0.24111794  0.61433962    -0.00600
Br888      Br  0.32253943  0.27493716  0.57150035    -0.00590
C889        C  0.28054760  0.12922024  0.64861443    -0.01710
C890        C  0.29982738  0.15152278  0.65643133     0.07970
C891        C  0.32195684  0.15611502  0.65589062    -0.01820
C892        C  0.32480548  0.13846615  0.64780742    -0.01830
C893        C  0.30549265  0.11603371  0.64050000     0.08100
C894        C  0.28335212  0.11149314  0.64082220    -0.02020
Br895      Br  0.25677450  0.08075966  0.63193857    -0.00570
Br896      Br  0.25022806  0.12287540  0.64948109    -0.00640
Br897      Br  0.35527818  0.14521525  0.64575924    -0.00600
Br898      Br  0.34840271  0.18677920  0.66564958    -0.00590
C899        C  0.24323188  0.28465737  0.26147690    -0.01710
C900        C  0.25999401  0.30743040  0.25102242     0.07970
C901        C  0.25491642  0.32402568  0.25209490    -0.01820
C902        C  0.23485726  0.31882656  0.26873124    -0.01830
C903        C  0.21966348  0.29685511  0.28368946     0.08100
C904        C  0.22300652  0.27934236  0.27751701    -0.02020
Br905      Br  0.20037213  0.24839385  0.29306204    -0.00570
Br906      Br  0.24817749  0.26082948  0.25451870    -0.00640
Br907      Br  0.22988455  0.34278906  0.27437954    -0.00600
Br908      Br  0.27655086  0.35466916  0.23441373    -0.00590
C909        C  0.30430833  0.22659561  0.20382162    -0.01710
C910        C  0.31936607  0.22927135  0.17748758     0.07970
C911        C  0.33981123  0.25096316  0.17136095    -0.01820
C912        C  0.34387949  0.27041778  0.18862733    -0.01830
C913        C  0.32762035  0.26807897  0.21225417     0.08100
C914        C  0.30853643  0.24608565  0.22135814    -0.02020
Br915      Br  0.28792105  0.24291206  0.25695581    -0.00570
Br916      Br  0.27704419  0.19661317  0.21375834    -0.00640
Br917      Br  0.37063542  0.30046729  0.17754185    -0.00600
Br918      Br  0.36147697  0.25407738  0.13764215    -0.00590
C919        C  0.39536540  0.37634018  0.37862911    -0.01710
C920        C  0.39237050  0.39306594  0.39144489     0.07970
C921        C  0.37953655  0.39904479  0.37184650    -0.01820
C922        C  0.36834661  0.38722822  0.34071285    -0.01830
C923        C  0.37044604  0.36966284  0.32849816     0.08100
C924        C  0.38465203  0.36481615  0.34703394    -0.02020
Br925      Br  0.38999224  0.34280665  0.32900338    -0.00570
Br926      Br  0.41357548  0.36878387  0.40518482    -0.00640
Br927      Br  0.34854478  0.39394814  0.31695502    -0.00600
Br928      Br  0.37670646  0.42302145  0.38854639    -0.00590
C929        C  0.34999470  0.35754314  0.55847592    -0.01710
C930        C  0.32994944  0.35674270  0.55149967     0.07970
C931        C  0.33113087  0.37369390  0.53012825    -0.01820
C932        C  0.35129637  0.38925298  0.51185325    -0.01830
C933        C  0.37027523  0.38782759  0.51487294     0.08100
C934        C  0.37014460  0.37294485  0.53974311    -0.02020
Br935      Br  0.39676445  0.37215417  0.54565897    -0.00570
Br936      Br  0.34943555  0.33638290  0.59124063    -0.00640
Br937      Br  0.35259754  0.41175572  0.48117815    -0.00600
Br938      Br  0.30485771  0.37519651  0.52536691    -0.00590
C939        C  0.37525157  0.39282430  0.09314366    -0.01710
C940        C  0.39443464  0.39287550  0.08375699     0.07970
C941        C  0.40356075  0.38476138  0.10761053    -0.01820
C942        C  0.39252038  0.37504353  0.13965137    -0.01830
C943        C  0.37161561  0.37239013  0.14727936     0.08100
C944        C  0.36352706  0.38220406  0.12440399    -0.02020
Br945      Br  0.33538986  0.37960108  0.13363642    -0.00570
Br946      Br  0.36486752  0.40701754  0.06248054    -0.00640
Br947      Br  0.40663351  0.36607680  0.17330833    -0.00600
Br948      Br  0.43058719  0.38598065  0.09549374    -0.00590
C949        C  0.38660587  0.35418250  0.94371717    -0.01710
C950        C  0.38013413  0.36736938  0.96030434     0.07970
C951        C  0.35766440  0.36147319  0.95583822    -0.01820
C952        C  0.34085566  0.34077251  0.93920871    -0.01830
C953        C  0.34669710  0.32623805  0.92521320     0.08100
C954        C  0.37003536  0.33392060  0.92557110    -0.02020
Br955      Br  0.37958624  0.31701656  0.90088677    -0.00570
Br956      Br  0.41784612  0.36313394  0.94763302    -0.00640
Br957      Br  0.30967082  0.33196702  0.93942112    -0.00600
Br958      Br  0.34988602  0.38175996  0.97348815    -0.00590
C959        C  0.74993522  0.67269934  0.54274028    -0.01710
C960        C  0.74349986  0.65189872  0.55878462     0.07970
C961        C  0.72861355  0.63093486  0.54124265    -0.01820
C962        C  0.71944338  0.63063906  0.50827536    -0.01830
C963        C  0.72372299  0.65123295  0.49391080     0.08100
C964        C  0.73995980  0.67240441  0.51045029    -0.02020
Br965      Br  0.74929371  0.70109885  0.48837904    -0.00570
Br966      Br  0.77169963  0.70143663  0.56592815    -0.00640
Br967      Br  0.70058609  0.60167396  0.48407380    -0.00600
Br968      Br  0.71918878  0.60237080  0.56390623    -0.00590
C969        C  0.73082352  0.62967163  0.27908107    -0.01710
C970        C  0.74231396  0.64915739  0.25716647     0.07970
C971        C  0.74390716  0.66924862  0.26694230    -0.01820
C972        C  0.73221956  0.66916909  0.29646632    -0.01830
C973        C  0.71984936  0.64932611  0.31767548     0.08100
C974        C  0.72005563  0.62993495  0.30965605    -0.02020
Br975      Br  0.70603270  0.60377627  0.34081177    -0.00570
Br976      Br  0.72840453  0.60202292  0.26611872    -0.00640
Br977      Br  0.73153036  0.69565269  0.30536797    -0.00600
Br978      Br  0.76176823  0.69686762  0.23909659    -0.00590
C979        C  0.69650621  0.65401999  0.70213418    -0.01710
C980        C  0.67969857  0.63114478  0.71237757     0.07970
C981        C  0.68462996  0.61442831  0.71078029    -0.01820
C982        C  0.70509313  0.61994174  0.69520801    -0.01830
C983        C  0.72087004  0.64231447  0.68222484     0.08100
C984        C  0.71724102  0.65964256  0.68783911    -0.02020
Br985      Br  0.74045952  0.69093988  0.67428857    -0.00570
Br986      Br  0.69104380  0.67773118  0.70616008    -0.00640
Br987      Br  0.71035277  0.59624683  0.68849164    -0.00600
Br988      Br  0.66242012  0.58333731  0.72616614    -0.00590
C989        C  0.55323409  0.54038213  0.86405736    -0.01710
C990        C  0.54396172  0.54938361  0.88521839     0.07970
C991        C  0.54600856  0.56965865  0.87484935    -0.01820
C992        C  0.55883646  0.58190960  0.84515559    -0.01830
C993        C  0.56888910  0.57336782  0.82449576     0.08100
C994        C  0.56528262  0.55208882  0.83345561    -0.02020
Br995      Br  0.57647027  0.53858071  0.80372577    -0.00570
Br996      Br  0.55087245  0.51285959  0.87829879    -0.00640
Br997      Br  0.56432636  0.61154034  0.83544496    -0.00600
Br998      Br  0.53171207  0.58103309  0.90231485    -0.00590
C999        C  0.49085981  0.47042341  0.98318026    -0.01710
C1000       C  0.48908234  0.48825094  0.97103540     0.07970
C1001       C  0.46739054  0.48466276  0.96863436    -0.01820
C1002       C  0.44757251  0.46336725  0.97854271    -0.01830
C1003       C  0.44941101  0.44567787  0.99110100     0.08100
C1004       C  0.47105340  0.44918712  0.99325093    -0.02020
Br1005     Br  0.47344784  0.42479676  0.00996588    -0.00570
Br1006     Br  0.52046055  0.47508386  0.98567508    -0.00640
Br1007     Br  0.41788567  0.45846953  0.97566899    -0.00600
Br1008     Br  0.46497622  0.50925261  0.95309686    -0.00590
C1009       C  0.54446770  0.54155817  0.61522382    -0.01710
C1010       C  0.54376050  0.55352941  0.58607426     0.07970
C1011       C  0.55275856  0.57711656  0.58936846    -0.01820
C1012       C  0.56494142  0.58927548  0.61981539    -0.01830
C1013       C  0.56712555  0.57758816  0.64804788     0.08100
C1014       C  0.55561978  0.55346270  0.64635906    -0.02020
Br1015     Br  0.55491435  0.53650178  0.68683951    -0.00570
Br1016     Br  0.53205737  0.50926097  0.61201340    -0.00640
Br1017     Br  0.58047284  0.62226958  0.62075226    -0.00600
Br1018     Br  0.54910012  0.59295334  0.55126798    -0.00590
C1019       C  0.59306196  0.55631163  0.48159283    -0.01710
C1020       C  0.57279565  0.55362300  0.46957458     0.07970
C1021       C  0.57322535  0.56511818  0.43892898    -0.01820
C1022       C  0.59433432  0.58112828  0.42272693    -0.01830
C1023       C  0.61496763  0.58609669  0.43786618     0.08100
C1024       C  0.61414465  0.57301017  0.46652064    -0.02020
Br1025     Br  0.64192807  0.57852423  0.48638085    -0.00570
Br1026     Br  0.59193493  0.53773162  0.52000271    -0.00640
Br1027     Br  0.59510797  0.59790011  0.38208014    -0.00600
Br1028     Br  0.54536530  0.56059456  0.42093957    -0.00590
C1029       C  0.48619810  0.47032740  0.50893065    -0.01710
C1030       C  0.49120726  0.49188560  0.49858956     0.07970
C1031       C  0.47536066  0.49313975  0.47789133    -0.01820
C1032       C  0.45437319  0.47287472  0.46795191    -0.01830
C1033       C  0.44924283  0.45129945  0.47860560     0.08100
C1034       C  0.46521651  0.45005687  0.49903847    -0.02020
Br1035     Br  0.45853392  0.42053466  0.51284875    -0.00570
Br1036     Br  0.50833877  0.46858891  0.53597880    -0.00640
Br1037     Br  0.43233427  0.47470175  0.44071050    -0.00600
Br1038     Br  0.48240211  0.52269916  0.46351528    -0.00590
C1039       C  0.70717637  0.63375619  0.12566122    -0.01710
C1040       C  0.73031791  0.65177830  0.13095651     0.07970
C1041       C  0.73887203  0.67377812  0.11730909    -0.01820
C1042       C  0.72372887  0.67835028  0.10168710    -0.01830
C1043       C  0.69995980  0.66094965  0.10052452     0.08100
C1044       C  0.69190302  0.63836516  0.11113620    -0.02020
Br1045     Br  0.65975338  0.61375253  0.10776934    -0.00570
Br1046     Br  0.69625089  0.60310333  0.14121805    -0.00640
Br1047     Br  0.73531567  0.70908147  0.08595346    -0.00600
Br1048     Br  0.77092524  0.69809945  0.12337233    -0.00590
C1049       C  0.59934966  0.59028025  0.02868786    -0.01710
C1050       C  0.59327178  0.60352726  0.04648332     0.07970
C1051       C  0.56984109  0.59488498  0.05011584    -0.01820
C1052       C  0.55295422  0.57470313  0.03223377    -0.01830
C1053       C  0.55943848  0.56284990  0.01169496     0.08100
C1054       C  0.58235730  0.56968508  0.01220864    -0.02020
Br1055     Br  0.59047160  0.55126254  0.98834934    -0.00570
Br1056     Br  0.63098763  0.60055482  0.02506607    -0.00640
Br1057     Br  0.52129323  0.56462271  0.03306473    -0.00600
Br1058     Br  0.56080297  0.61182017  0.07603444    -0.00590
C1059       C  0.66243942  0.74470334  0.95006525    -0.01710
C1060       C  0.64380235  0.73281114  0.92641321     0.07970
C1061       C  0.62506390  0.71028576  0.93435319    -0.01820
C1062       C  0.62566944  0.69907796  0.96447424    -0.01830
C1063       C  0.64473367  0.71066956  0.98759776     0.08100
C1064       C  0.66277079  0.73377645  0.98081618    -0.02020
Br1065     Br  0.68785820  0.75072982  0.01382676    -0.00570
Br1066     Br  0.68823563  0.77545649  0.93925645    -0.00640
Br1067     Br  0.60122083  0.66711365  0.97186670    -0.00600
Br1068     Br  0.59870490  0.69456956  0.90324904    -0.00590
C1069       C  0.66406764  0.71864570  0.80019581    -0.01710
C1070       C  0.64844014  0.72492702  0.79926067     0.07970
C1071       C  0.62932250  0.71340159  0.77621716    -0.01820
C1072       C  0.62434004  0.69380780  0.75800148    -0.01830
C1073       C  0.63776501  0.68515010  0.76427085     0.08100
C1074       C  0.65828981  0.69824087  0.78403459    -0.02020
Br1075     Br  0.67794721  0.68774473  0.79112524    -0.00570
Br1076     Br  0.69269042  0.73735945  0.82579942    -0.00640
Br1077     Br  0.59746100  0.67740116  0.72803416    -0.00600
Br1078     Br  0.60823750  0.72239926  0.77237058    -0.00590
C1079       C  0.62089394  0.78255928  0.83831885    -0.01710
C1080       C  0.64318659  0.78788294  0.84295811     0.07970
C1081       C  0.66245762  0.81034550  0.83690066    -0.01820
C1082       C  0.65947461  0.82748437  0.82578982    -0.01830
C1083       C  0.63715245  0.82218511  0.82108960     0.08100
C1084       C  0.61786872  0.79973510  0.82755379    -0.02020
Br1085     Br  0.58735288  0.79261143  0.82209001    -0.00570
Br1086     Br  0.59454134  0.75154241  0.84583652    -0.00640
Br1087     Br  0.68599765  0.85797355  0.81559560    -0.00600
Br1088     Br  0.69288882  0.81742215  0.84353649    -0.00590
C1089       C  0.62487999  0.71749520  0.20808491    -0.01710
C1090       C  0.64553463  0.73467213  0.22451053     0.07970
C1091       C  0.66663225  0.74200075  0.20924604    -0.01820
C1092       C  0.66721651  0.73093230  0.17920772    -0.01830
C1093       C  0.64647840  0.71275519  0.16356102     0.08100
C1094       C  0.62528901  0.70680571  0.17739838    -0.02020
Br1095     Br  0.59660262  0.68435186  0.15432346    -0.00570
Br1096     Br  0.59601887  0.70778926  0.22891005    -0.00640
Br1097     Br  0.69670773  0.73966487  0.16209334    -0.00600
Br1098     Br  0.69482857  0.76678983  0.23067979    -0.00590
C1099       C  0.63952609  0.70769752  0.36666426    -0.01710
C1100       C  0.65700571  0.72791059  0.34993352     0.07970
C1101       C  0.67995536  0.73492406  0.35311947    -0.01820
C1102       C  0.68514959  0.72053893  0.36969827    -0.01830
C1103       C  0.66730525  0.69906843  0.38322216     0.08100
C1104       C  0.64465719  0.69327712  0.38335234    -0.02020
Br1105     Br  0.62057188  0.66535429  0.40575762    -0.00570
Br1106     Br  0.60835144  0.69904974  0.36431609    -0.00640
Br1107     Br  0.71637951  0.72925153  0.37012278    -0.00600
Br1108     Br  0.70400207  0.76351520  0.33219042    -0.00590
C1109       C  0.61619242  0.77876913  0.31005787    -0.01710
C1110       C  0.63852076  0.78382029  0.31082339     0.07970
C1111       C  0.65733459  0.80617762  0.31957069    -0.01820
C1112       C  0.65383982  0.82337824  0.32770626    -0.01830
C1113       C  0.63144966  0.81825627  0.32751719     0.08100
C1114       C  0.61263844  0.79589388  0.31852956    -0.02020
Br1115     Br  0.58185051  0.78839388  0.31927537    -0.00570
Br1116     Br  0.59039162  0.74811739  0.29845143    -0.00640
Br1117     Br  0.67985919  0.85418097  0.33810115    -0.00600
Br1118     Br  0.68798197  0.81328562  0.31982723    -0.00590
C1119       C  0.97324517  0.53403369  0.37001927    -0.01710
C1120       C  0.95338755  0.52284179  0.39075703     0.07970
C1121       C  0.93289436  0.51895537  0.37733275    -0.01820
C1122       C  0.93282608  0.52838275  0.34484740    -0.01830
C1123       C  0.95340355  0.54196933  0.32588431     0.08100
C1124       C  0.97328475  0.54355172  0.33755646    -0.02020
Br1125     Br  0.00139769  0.56048422  0.31125172    -0.00570
Br1126     Br  0.00113117  0.53828919  0.38755012    -0.00640
Br1127     Br  0.90444804  0.52252952  0.32644372    -0.00600
Br1128     Br  0.90522583  0.50146763  0.40440888    -0.00590
C1129       C  0.93433483  0.52737391  0.09541587    -0.01710
C1130       C  0.95429626  0.52972274  0.08328891     0.07970
C1131       C  0.97443377  0.54136558  0.10403509    -0.01820
C1132       C  0.97485676  0.55135546  0.13605024    -0.01830
C1133       C  0.95537605  0.55047608  0.14694807     0.08100
C1134       C  0.93496415  0.53809971  0.12670056    -0.02020
Br1135     Br  0.90827311  0.53733398  0.13973758    -0.00570
Br1136     Br  0.90605326  0.50955074  0.06875363    -0.00640
Br1137     Br  0.00209826  0.56573863  0.16524550    -0.00600
Br1138     Br  0.00194514  0.54492883  0.08773332    -0.00590
C1139       C  0.96626993  0.57747529  0.55361309    -0.01710
C1140       C  0.98249112  0.59903505  0.53857796     0.07970
C1141       C  0.99469801  0.60041905  0.50880387    -0.01820
C1142       C  0.99018312  0.58031609  0.49331341    -0.01830
C1143       C  0.97261355  0.55858203  0.50649104     0.08100
C1144       C  0.96108630  0.55717148  0.53728862    -0.02020
Br1145     Br  0.93742618  0.52757024  0.55599373    -0.00570
Br1146     Br  0.95028445  0.57578963  0.59523481    -0.00640
Br1147     Br  0.00848146  0.58273358  0.45418499    -0.00600
Br1148     Br  0.01777303  0.63002007  0.48906751    -0.00590
C1149       C  0.06254833  0.71746944  0.48262112    -0.01710
C1150       C  0.03927914  0.70953000  0.48564608     0.07970
C1151       C  0.02843143  0.71322094  0.45771182    -0.01820
C1152       C  0.04021186  0.72295351  0.42617486    -0.01830
C1153       C  0.06246611  0.72823878  0.42185274     0.08100
C1154       C  0.07393962  0.72632188  0.45060882    -0.02020
Br1155     Br  0.10450314  0.73371750  0.44548262    -0.00570
Br1156     Br  0.07898765  0.71619444  0.52231718    -0.00640
Br1157     Br  0.02555089  0.72814536  0.38795733    -0.00600
Br1158     Br  0.99672913  0.70289918  0.46059820    -0.00590
C1159       C  0.03343915  0.65092611  0.30530034    -0.01710
C1160       C  0.02152756  0.65095971  0.27550620     0.07970
C1161       C  0.02836947  0.67204656  0.25975040    -0.01820
C1162       C  0.04534335  0.69299084  0.27595865    -0.01830
C1163       C  0.05597853  0.69284871  0.30740301     0.08100
C1164       C  0.05101560  0.67178718  0.32059588    -0.02020
Br1165     Br  0.06801396  0.67152263  0.36037233    -0.00570
Br1166     Br  0.02533894  0.62225738  0.32590903    -0.00640
Br1167     Br  0.05233169  0.72155487  0.25656509    -0.00600
Br1168     Br  0.01295154  0.67231742  0.21791816    -0.00590
C1169       C  0.14351324  0.78079828  0.33989635    -0.01710
C1170       C  0.12160891  0.77501317  0.32996277     0.07970
C1171       C  0.11953132  0.79017975  0.30890296    -0.01820
C1172       C  0.13928028  0.81111268  0.29784469    -0.01830
C1173       C  0.16125509  0.81693070  0.30765175     0.08100
C1174       C  0.16332313  0.80170130  0.32870932    -0.02020
Br1175     Br  0.19328689  0.80916524  0.34144528    -0.00570
Br1176     Br  0.14630046  0.75990363  0.36850340    -0.00640
Br1177     Br  0.13610200  0.83221679  0.27042778    -0.00600
Br1178     Br  0.08951028  0.78244316  0.29589620    -0.00590
C1179       C  0.06173783  0.73640050  0.69995375    -0.01710
C1180       C  0.06223194  0.72406538  0.72871727     0.07970
C1181       C  0.05477222  0.70096970  0.72416068    -0.01820
C1182       C  0.04457727  0.68956034  0.69229355    -0.01830
C1183       C  0.04276106  0.70155719  0.66417261     0.08100
C1184       C  0.05260490  0.72533690  0.66758103    -0.02020
Br1185     Br  0.05382009  0.74301108  0.62773514    -0.00570
Br1186     Br  0.07163080  0.76790716  0.70524396    -0.00640
Br1187     Br  0.03129998  0.65702780  0.68890845    -0.00600
Br1188     Br  0.05811857  0.68479271  0.76206915    -0.00590
C1189       C  0.12077523  0.80582665  0.80615918    -0.01710
C1190       C  0.11570304  0.78424973  0.81663125     0.07970
C1191       C  0.13209204  0.78297521  0.83570523    -0.01820
C1192       C  0.15358317  0.80319871  0.84396197    -0.01830
C1193       C  0.15869611  0.82478180  0.83337936     0.08100
C1194       C  0.14226457  0.82604822  0.81439847    -0.02020
Br1195     Br  0.14911941  0.85556586  0.80016923    -0.00570
Br1196     Br  0.09799386  0.80771072  0.78144635    -0.00640
Br1197     Br  0.17627681  0.80125783  0.86879045    -0.00600
Br1198     Br  0.12515537  0.75345510  0.85008310    -0.00590
C1199       C  0.92183359  0.54969337  0.93438462    -0.01710
C1200       C  0.94067146  0.57211942  0.92619934     0.07970
C1201       C  0.96314573  0.57769581  0.92934079    -0.01820
C1202       C  0.96693396  0.56210853  0.94518335    -0.01830
C1203       C  0.94820604  0.54082825  0.95732276     0.08100
C1204       C  0.92565674  0.53401731  0.94987247    -0.02020
Br1205     Br  0.90013094  0.50387037  0.96377818    -0.00570
Br1206     Br  0.89085913  0.54116926  0.92805609    -0.00640
Br1207     Br  0.99774298  0.57045571  0.95294483    -0.00600
Br1208     Br  0.98869220  0.60674664  0.91232911    -0.00590
C1209       C  0.99587171  0.70325445  0.86378606    -0.01710
C1210       C  0.99541816  0.68641951  0.88458227     0.07970
C1211       C  0.01586896  0.68789589  0.89078736    -0.01820
C1212       C  0.03597657  0.70428997  0.87286449    -0.01830
C1213       C  0.03582040  0.71971544  0.84953007     0.08100
C1214       C  0.01614743  0.71999777  0.84651496    -0.02020
Br1215     Br  0.01678351  0.74260564  0.81696788    -0.00570
Br1216     Br  0.96828338  0.70214954  0.85598913    -0.00640
Br1217     Br  0.06310067  0.70429232  0.87798349    -0.00600
Br1218     Br  0.01631683  0.66752781  0.92399797    -0.00590
C1219       C  0.86195449  0.61479051  0.04022302    -0.01710
C1220       C  0.87567254  0.62891740  0.06843340     0.07970
C1221       C  0.89963707  0.64424793  0.06416113    -0.01820
C1222       C  0.91000896  0.64406244  0.03311861    -0.01830
C1223       C  0.89637743  0.62923278  0.00538538     0.08100
C1224       C  0.87224462  0.61523418  0.00861298    -0.02020
Br1225     Br  0.85309969  0.59696399  0.96945467    -0.00570
Br1226     Br  0.82919426  0.59373740  0.04537898    -0.00640
Br1227     Br  0.94308541  0.66275100  0.03023304    -0.00600
Br1228     Br  0.91839156  0.66545630  0.10123749    -0.00590
C1229       C  0.89653598  0.62641014  0.20875329    -0.01710
C1230       C  0.87632450  0.60883231  0.19179149     0.07970
C1231       C  0.86951820  0.58590475  0.19421020    -0.01820
C1232       C  0.88422358  0.58086672  0.21000850    -0.01830
C1233       C  0.90584764  0.59892370  0.22320033     0.08100
C1234       C  0.91131470  0.62147468  0.22448466    -0.02020
Br1235     Br  0.93934096  0.64575185  0.24695553    -0.00570
Br1236     Br  0.90488113  0.65757376  0.20761072    -0.00640
Br1237     Br  0.87562436  0.54960063  0.20975635    -0.00600
Br1238     Br  0.84085202  0.56179935  0.17308906    -0.00590
C1239       C  0.83000586  0.65199545  0.17135574    -0.01710
C1240       C  0.82370837  0.63147043  0.15456490     0.07970
C1241       C  0.80045091  0.61458400  0.14681876    -0.01820
C1242       C  0.78354521  0.61828430  0.15550734    -0.01830
C1243       C  0.78985298  0.63899645  0.17181130     0.08100
C1244       C  0.81313601  0.65581698  0.17982009    -0.02020
Br1245     Br  0.82204241  0.68444409  0.20128932    -0.00570
Br1246     Br  0.86183439  0.67498668  0.18230344    -0.00640
Br1247     Br  0.75162687  0.59457255  0.14614204    -0.00600
Br1248     Br  0.79173996  0.58609135  0.12509884    -0.00590
C1249       C  0.78812841  0.62430030  0.64216340    -0.01710
C1250       C  0.79050025  0.64501028  0.65013154     0.07970
C1251       C  0.81016658  0.66265962  0.66815934    -0.01820
C1252       C  0.82749911  0.65965536  0.67795224    -0.01830
C1253       C  0.82502810  0.63890090  0.67012425     0.08100
C1254       C  0.80544346  0.62131185  0.65200147    -0.02020
Br1255     Br  0.80248859  0.59318134  0.64056953    -0.00570
Br1256     Br  0.76084263  0.59967953  0.61879993    -0.00640
Br1257     Br  0.85497631  0.68422305  0.70102071    -0.00600
Br1258     Br  0.81351142  0.69107783  0.67881699    -0.00590
C1259       C  0.87328724  0.63850323  0.78534508    -0.01710
C1260       C  0.86657865  0.62200648  0.75877898     0.07970
C1261       C  0.86749461  0.60284598  0.76529333    -0.01820
C1262       C  0.87719868  0.60140521  0.79674658    -0.01830
C1263       C  0.88558685  0.61893128  0.82202909     0.08100
C1264       C  0.88250285  0.63678290  0.81702032    -0.02020
Br1265     Br  0.89130161  0.65918137  0.85359110    -0.00570
Br1266     Br  0.87204518  0.66475831  0.77754689    -0.00640
Br1267     Br  0.88097303  0.57664933  0.80352318    -0.00600
Br1268     Br  0.85630867  0.57909397  0.73029815    -0.00590
C1269       C  0.91893976  0.66640408  0.64720680    -0.01710
C1270       C  0.89712395  0.64640650  0.63957243     0.07970
C1271       C  0.89432962  0.63182463  0.61203899    -0.01820
C1272       C  0.91372313  0.63620271  0.59426441    -0.01830
C1273       C  0.93572184  0.65500345  0.60432828     0.08100
C1274       C  0.93825941  0.67057455  0.62982070    -0.02020
Br1275     Br  0.96840623  0.69710020  0.64199823    -0.00570
Br1276     Br  0.92236543  0.68757832  0.68255466    -0.00640
Br1277     Br  0.91045808  0.61568288  0.55800833    -0.00600
Br1278     Br  0.86425399  0.60505761  0.60051378    -0.00590
C1279       C  0.98031166  0.40558578  0.61516698    -0.01710
C1280       C  0.99831147  0.41334947  0.59128322     0.07970
C1281       C  0.01663299  0.41154097  0.59991700    -0.01820
C1282       C  0.01580506  0.39981021  0.63045797    -0.01830
C1283       C  0.99688042  0.39050835  0.65318807     0.08100
C1284       C  0.97995481  0.39481866  0.64644317    -0.02020
Br1285     Br  0.95612080  0.38621823  0.68003012    -0.00570
Br1286     Br  0.95472553  0.40740332  0.60371952    -0.00640
Br1287     Br  0.03969198  0.39493454  0.63875969    -0.00600
Br1288     Br  0.04235644  0.42430530  0.56868361    -0.00590
C1289       C  0.99938443  0.47910245  0.50085626    -0.01710
C1290       C  0.98142333  0.45579477  0.50552547     0.07970
C1291       C  0.95839385  0.44866542  0.50232726    -0.01820
C1292       C  0.95337209  0.46466755  0.49335635    -0.01830
C1293       C  0.97132394  0.48785194  0.48781715     0.08100
C1294       C  0.99434357  0.49514230  0.49198955    -0.02020
Br1295     Br  0.01897208  0.52689536  0.48401698    -0.00570
Br1296     Br  0.03085958  0.48882270  0.50518980    -0.00640
Br1297     Br  0.92187313  0.45491836  0.48880547    -0.00600
Br1298     Br  0.93364184  0.41700615  0.51070699    -0.00590
C1299       C  0.94700434  0.44261262  0.97674817    -0.01710
C1300       C  0.96941284  0.44791625  0.97751798     0.07970
C1301       C  0.98805599  0.47006649  0.98737411    -0.01820
C1302       C  0.98431891  0.48695103  0.99629285    -0.01830
C1303       C  0.96190170  0.48165789  0.99559917     0.08100
C1304       C  0.94324488  0.45947647  0.98577993    -0.02020
Br1305     Br  0.91256512  0.45224513  0.98490965    -0.00570
Br1306     Br  0.92152878  0.41219837  0.96339180    -0.00640
Br1307     Br  0.00997464  0.51756486  0.00833067    -0.00600
Br1308     Br  0.01873116  0.47728209  0.98812076    -0.00590
C1309       C  0.00350914  0.40768447  0.87808400    -0.01710
C1310       C  0.98327046  0.40588516  0.88694562     0.07970
C1311       C  0.96464810  0.39575944  0.86308305    -0.01820
C1312       C  0.96569042  0.38603072  0.83174989    -0.01830
C1313       C  0.98496134  0.38558030  0.82480896     0.08100
C1314       C  0.00417968  0.39705133  0.84764436    -0.02020
Br1315     Br  0.03060563  0.39620679  0.83983780    -0.00570
Br1316     Br  0.03010024  0.42401644  0.90869266    -0.00640
Br1317     Br  0.94069479  0.37341535  0.79827875    -0.00600
Br1318     Br  0.93695218  0.39347365  0.87436264    -0.00590
C1319       C  0.94736476  0.34237901  0.46592950    -0.01710
C1320       C  0.96129321  0.34284402  0.43962491     0.07970
C1321       C  0.98033941  0.36397060  0.42740994    -0.01820
C1322       C  0.98670051  0.38457711  0.44392074    -0.01830
C1323       C  0.97382349  0.38386053  0.47229799     0.08100
C1324       C  0.95346466  0.36290691  0.48199674    -0.02020
Br1325     Br  0.93455208  0.36221932  0.51863313    -0.00570
Br1326     Br  0.92051455  0.31340818  0.48104362    -0.00640
Br1327     Br  0.01385410  0.41345925  0.42954808    -0.00600
Br1328     Br  0.99860344  0.36438805  0.39003373    -0.00590
C1329       C  0.87720252  0.21117159  0.53003905    -0.01710
C1330       C  0.88890270  0.21132806  0.56030452     0.07970
C1331       C  0.91251010  0.22035761  0.55837557    -0.01820
C1332       C  0.92489667  0.23171875  0.52786616    -0.01830
C1333       C  0.91344179  0.23308865  0.49847781     0.08100
C1334       C  0.88934248  0.22143723  0.49900481    -0.02020
Br1335     Br  0.87275330  0.21940981  0.45700266    -0.00570
Br1336     Br  0.84498251  0.19897279  0.53141717    -0.00640
Br1337     Br  0.95777798  0.24714692  0.52803711    -0.00600
Br1338     Br  0.92801546  0.21771134  0.59813196    -0.00590
C1339       C  0.91849893  0.25838888  0.72282074    -0.01710
C1340       C  0.92180720  0.27929223  0.71289937     0.07970
C1341       C  0.90665911  0.27925607  0.68868784    -0.01820
C1342       C  0.88968236  0.25869285  0.67191867    -0.01830
C1343       C  0.88822138  0.23827474  0.67875350     0.08100
C1344       C  0.90183852  0.23787514  0.70555331    -0.02020
Br1345     Br  0.89946651  0.20984090  0.71597892    -0.00570
Br1346     Br  0.93809032  0.25815699  0.75779845    -0.00640
Br1347     Br  0.86928509  0.25860298  0.63789285    -0.00600
Br1348     Br  0.91010235  0.30767369  0.67717726    -0.00590
C1349       C  0.82634396  0.14100860  0.66282040    -0.01710
C1350       C  0.82577571  0.15764947  0.64328071     0.07970
C1351       C  0.80460407  0.15298958  0.63140529    -0.01820
C1352       C  0.78404657  0.13175791  0.63911144    -0.01830
C1353       C  0.78459118  0.11520925  0.65895607     0.08100
C1354       C  0.80578495  0.11976362  0.67049273    -0.02020
Br1355     Br  0.80666267  0.09668015  0.69613381    -0.00570
Br1356     Br  0.85532282  0.14740204  0.67905791    -0.00640
Br1357     Br  0.75506273  0.12537680  0.62292081    -0.00600
Br1358     Br  0.80373887  0.17601304  0.60554366    -0.00590
C1359       C  0.88581024  0.23631666  0.26592087    -0.01710
C1360       C  0.88184014  0.21485947  0.25823310     0.07970
C1361       C  0.88773537  0.20418607  0.28303487    -0.01820
C1362       C  0.89868129  0.21547711  0.31464624    -0.01830
C1363       C  0.90444647  0.23788387  0.32114444     0.08100
C1364       C  0.89742384  0.24802536  0.29692432    -0.02020
Br1365     Br  0.90552034  0.27887224  0.30386659    -0.00570
Br1366     Br  0.87582926  0.24993501  0.23316484    -0.00640
Br1367     Br  0.90547657  0.19991127  0.34901748    -0.00600
Br1368     Br  0.88210358  0.17469522  0.27263342    -0.00590
C1369       C  0.78493714  0.14170219  0.15249943    -0.01710
C1370       C  0.78166429  0.12035376  0.14680793     0.07970
C1371       C  0.79985514  0.11793418  0.15272016    -0.01820
C1372       C  0.82139208  0.13692591  0.16394852    -0.01830
C1373       C  0.82474717  0.15834678  0.16929285     0.08100
C1374       C  0.80649742  0.16072117  0.16366208    -0.02020
Br1375     Br  0.81127920  0.19018165  0.17048179    -0.00570
Br1376     Br  0.75985779  0.14480078  0.14470908    -0.00640
Br1377     Br  0.84633230  0.13366841  0.17227956    -0.00600
Br1378     Br  0.79513377  0.08853031  0.14553938    -0.00590
C1379       C  0.97179574  0.34782259  0.02261682    -0.01710
C1380       C  0.99275681  0.35778560  0.04133280     0.07970
C1381       C  0.00624392  0.38170269  0.04809518    -0.01820
C1382       C  0.00025007  0.39578342  0.03256421    -0.01830
C1383       C  0.98044345  0.38591617  0.01121519     0.08100
C1384       C  0.96542548  0.36184414  0.00852735    -0.02020
Br1385     Br  0.93655151  0.34830111  0.98367519    -0.00570
Br1386     Br  0.95181952  0.31503712  0.01480885    -0.00640
Br1387     Br  0.02034039  0.42873960  0.03788114    -0.00600
Br1388     Br  0.03423429  0.39579147  0.07539535    -0.00590
C1389       C  0.90839846  0.24473973  0.12528426    -0.01710
C1390       C  0.90345181  0.22304499  0.13423037     0.07970
C1391       C  0.91792241  0.21661610  0.12305183    -0.01820
C1392       C  0.93848347  0.23273478  0.10575683    -0.01830
C1393       C  0.94473997  0.25537480  0.10072709     0.08100
C1394       C  0.92931844  0.26113190  0.10948139    -0.02020
Br1395     Br  0.93732857  0.29186638  0.10183334    -0.00570
Br1396     Br  0.88681962  0.25219224  0.13627862    -0.00640
Br1397     Br  0.95912828  0.22457057  0.09235645    -0.00600
Br1398     Br  0.91039552  0.18640841  0.13395916    -0.00590
C1399       C  0.05772546  0.28997381  0.94069236    -0.01710
C1400       C  0.07734386  0.31082966  0.92917693     0.07970
C1401       C  0.08643572  0.33085786  0.94918223    -0.01820
C1402       C  0.07483992  0.33049805  0.97910582    -0.01830
C1403       C  0.05328179  0.31027209  0.98796704     0.08100
C1404       C  0.04523420  0.28969443  0.96924665    -0.02020
Br1405     Br  0.01612911  0.26130052  0.97957116    -0.00570
Br1406     Br  0.04750079  0.26192821  0.91590934    -0.00640
Br1407     Br  0.08913421  0.35776126  0.00792252    -0.00600
Br1408     Br  0.11440013  0.35891824  0.93447400    -0.00590
C1409       C  0.03604394  0.30050853  0.81093961    -0.01710
C1410       C  0.05993824  0.31527952  0.80609090     0.07970
C1411       C  0.06875722  0.33301364  0.78094877    -0.01820
C1412       C  0.05385082  0.33717245  0.76321853    -0.01830
C1413       C  0.03037843  0.32436720  0.77200380     0.08100
C1414       C  0.02146877  0.30560591  0.79522196    -0.02020
Br1415     Br  0.98938475  0.28713524  0.80701154    -0.00570
Br1416     Br  0.02320426  0.27333909  0.83976437    -0.00640
Br1417     Br  0.06610143  0.36181798  0.72952128    -0.00600
Br1418     Br  0.10133558  0.35284441  0.77282208    -0.00590
C1419       C  0.14370145  0.32131891  0.82817283    -0.01710
C1420       C  0.12113554  0.30257407  0.83525233     0.07970
C1421       C  0.11482826  0.27991675  0.83087248    -0.01820
C1422       C  0.13115434  0.27598518  0.81966801    -0.01830
C1423       C  0.15385924  0.29473718  0.81304230     0.08100
C1424       C  0.16009914  0.31742172  0.81724390    -0.02020
Br1425     Br  0.19130655  0.34313398  0.80930130    -0.00570
Br1426     Br  0.15207265  0.35231769  0.83379154    -0.00640
Br1427     Br  0.12234781  0.24492664  0.81277744    -0.00600
Br1428     Br  0.08378781  0.25435645  0.84023492    -0.00590
C1429       C  0.09090714  0.34825270  0.19931654    -0.01710
C1430       C  0.08671688  0.32850290  0.21626276     0.07970
C1431       C  0.07137730  0.30673195  0.20103337    -0.01820
C1432       C  0.05753641  0.30430644  0.17242670    -0.01830
C1433       C  0.06073733  0.32403967  0.15628777     0.08100
C1434       C  0.07846159  0.34611452  0.16873665    -0.02020
Br1435     Br  0.08610755  0.37348534  0.14401019    -0.00570
Br1436     Br  0.11356488  0.37808608  0.21860441    -0.00640
Br1437     Br  0.03238015  0.27352565  0.15911830    -0.00600
Br1438     Br  0.06821857  0.27982227  0.22076250    -0.00590
C1439       C  0.05671157  0.31902779  0.36741333    -0.01710
C1440       C  0.05495364  0.31191553  0.33226979     0.07970
C1441       C  0.03294709  0.29786544  0.31634416    -0.01820
C1442       C  0.01340157  0.29272054  0.33410012    -0.01830
C1443       C  0.01518295  0.29974011  0.36897557     0.08100
C1444       C  0.03671182  0.31233934  0.38602001    -0.02020
Br1445     Br  0.03878754  0.32126220  0.43422152    -0.00570
Br1446     Br  0.08634689  0.33897099  0.38968340    -0.00640
Br1447     Br  0.98383624  0.27557096  0.31042901    -0.00600
Br1448     Br  0.02862387  0.28411981  0.27083047    -0.00590
C1449       C  0.14755254  0.33053074  0.31984113    -0.01710
C1450       C  0.12498322  0.31239696  0.31068978     0.07970
C1451       C  0.11849149  0.28948625  0.31182313    -0.01820
C1452       C  0.13481836  0.28483534  0.32065862    -0.01830
C1453       C  0.15753025  0.30302978  0.32891357     0.08100
C1454       C  0.16379029  0.32585012  0.32908191    -0.02020
Br1455     Br  0.19475830  0.35071302  0.34127309    -0.00570
Br1456     Br  0.15611068  0.36177988  0.31981990    -0.00640
Br1457     Br  0.12625823  0.25359243  0.32117200    -0.00600
Br1458     Br  0.08737861  0.26452391  0.30071103    -0.00590
loop_ 
_geom_bond_atom_site_label_1 
_geom_bond_atom_site_label_2 
_geom_bond_distance 
_geom_bond_site_symmetry_2 
_ccdc_geom_bond_type 
C1            C2   1.405       .  A
C1            C6   1.406       .  A
C1         C1450   1.477       .  S
C2            C3   1.405       .  A
C2            H7   1.083       .  S
C3            C4   1.402       .  A
C3         C1440   1.490       .  S
C4            C5   1.399       .  A
C4            H8   1.085       .  S
C5            C6   1.402       .  A
C5         C1430   1.480       .  S
C6            H9   1.084       .  S
C10          C11   1.405       .  A
C10          C15   1.407       .  A
C10        C1420   1.474       .  S
C11          C12   1.401       .  A
C11          H16   1.083       .  S
C12          C13   1.400       .  A
C12        C1410   1.482       .  S
C13          C14   1.396       .  A
C13          H17   1.085       .  S
C14          C15   1.401       .  A
C14        C1400   1.476       .  S
C15          H18   1.083       .  S
O19          C22   1.265       .  A
O19         Cd24   2.493   1_655  S
C20        C1403   1.490   1_554  S
C20          O29   1.268       .  A
C20          O25   1.265       .  A
O21          C27   1.267       .  A
O21         Cd24   2.475       .  S
C22        C1393   1.470       .  S
C22          O30   1.261       .  A
C23        C1433   1.486       .  S
C23          O28   1.268       .  A
C23          O26   1.261       .  A
Cd24         O31   2.435   1_455  S
Cd24         O30   2.430   1_455  S
Cd24         O29   2.457       .  S
Cd24         O25   2.445       .  S
Cd24         O28   2.497       .  S
Cd24         O26   2.421       .  S
C27        C1380   1.483   1_455  S
C27          O31   1.265   1_455  A
C32          C33   1.404       .  A
C32          C37   1.408       .  A
C32        C1373   1.475       .  S
C33          C34   1.397       .  A
C33          H38   1.083       .  S
C34          C35   1.398       .  A
C34        C1390   1.472       .  S
C35          C36   1.398       .  A
C35          H39   1.085       .  S
C36          C37   1.404       .  A
C36        C1360   1.481       .  S
C37          H40   1.083       .  S
C41          C42   1.405       .  A
C41          C46   1.407       .  A
C41        C1350   1.478       .  S
C42          C43   1.401       .  A
C42          H47   1.083       .  S
C43          C44   1.398       .  A
C43        C1343   1.478       .  S
C44          C45   1.399       .  A
C44          H48   1.085       .  S
C45          C46   1.405       .  A
C45        C1330   1.486       .  S
C46          H49   1.083       .  S
O50          C53   1.267       .  A
O50         Cd55   2.497       .  S
C51        C1443   1.470   1_655  S
C51          O60   1.263       .  A
C51          O56   1.268       .  A
O52          C58   1.264       .  A
O52         Cd55   2.480       .  S
C53        C1333   1.482       .  S
C53          O61   1.263       .  A
C54        C1320   1.464       .  S
C54          O59   1.266       .  A
C54          O57   1.265       .  A
Cd55         O62   2.456       .  S
Cd55         O61   2.424       .  S
Cd55         O60   2.416       .  S
Cd55         O56   2.486       .  S
Cd55         O59   2.465       .  S
Cd55         O57   2.423       .  S
C58        C1363   1.485       .  S
C58          O62   1.263       .  A
C63          C64   1.406       .  A
C63          C68   1.408       .  A
C63        C1300   1.475       .  S
C64          C65   1.401       .  A
C64          H69   1.083   1_556  S
C65          C66   1.398       .  A
C65        C1383   1.479   1_556  S
C66          C67   1.397       .  A
C66          H70   1.085       .  S
C67          C68   1.403       .  A
C67        C1310   1.483       .  S
C68          H71   1.083       .  S
C72          C73   1.405       .  A
C72          C77   1.406       .  A
C72        C1290   1.476       .  S
C73          C74   1.398       .  A
C73          H78   1.084       .  S
C74          C75   1.397       .  A
C74        C1323   1.473       .  S
C75          C76   1.398       .  A
C75          H79   1.085       .  S
C76          C77   1.404       .  A
C76        C1280   1.481       .  S
C77          H80   1.084       .  S
O81          C84   1.267       .  A
O81         Cd86   2.465       .  S
C82        C1340   1.472       .  S
C82          O91   1.265       .  A
C82          O87   1.266       .  A
O83          C89   1.266   1_455  A
O83         Cd86   2.484   1_455  S
C84        C1313   1.480       .  S
C84          O92   1.263   1_655  A
C85        C1413   1.478       .  S
C85          O90   1.265       .  A
C85          O88   1.261       .  A
Cd86         O93   2.429       .  S
Cd86         O92   2.451   1_655  S
Cd86         O91   2.440       .  S
Cd86         O87   2.493       .  S
Cd86         O90   2.500   1_655  S
Cd86         O88   2.431   1_655  S
C89        C1283   1.485       .  S
C89          O93   1.264       .  A
C94          C95   1.402       .  A
C94          C99   1.407       .  A
C94        C1253   1.472       .  S
C95          C96   1.397       .  A
C95         H100   1.084       .  S
C96          C97   1.399       .  A
C96        C1270   1.472       .  S
C97          C98   1.400       .  A
C97         H101   1.085       .  S
C98          C99   1.404       .  A
C98        C1260   1.483       .  S
C99         H102   1.084       .  S
C103        C104   1.405       .  A
C103        C108   1.410       .  A
C103       C1240   1.479       .  S
C104        C105   1.399       .  A
C104        H109   1.083       .  S
C105        C106   1.397       .  A
C105       C1230   1.473       .  S
C106        C107   1.399       .  A
C106        H110   1.085       .  S
C107        C108   1.407       .  A
C107       C1220   1.487       .  S
C108        H111   1.083       .  S
O112        C115   1.262       .  A
O112       Cd117   2.480       .  S
C113       C1210   1.477       .  S
C113        O122   1.266       .  A
C113        O118   1.265       .  A
O114        C120   1.265       .  A
O114       Cd117   2.477       .  S
C115       C1223   1.484   1_556  S
C115        O123   1.263       .  A
C116       C1263   1.475       .  S
C116        O121   1.263       .  A
C116        O119   1.261       .  A
Cd117       O124   2.451       .  S
Cd117       O123   2.480       .  S
Cd117       O122   2.455       .  S
Cd117       O118   2.474       .  S
Cd117       O121   2.500       .  S
Cd117       O119   2.443       .  S
C120       C1200   1.475       .  S
C120        O124   1.266       .  A
C125        C126   1.405       .  A
C125        C130   1.407       .  A
C125       C1190   1.479       .  S
C126        C127   1.401       .  A
C126        H131   1.083       .  S
C127        C128   1.399       .  A
C127       C1213   1.477       .  S
C128        C129   1.400       .  A
C128        H132   1.085       .  S
C129        C130   1.405       .  A
C129       C1180   1.486       .  S
C130        H133   1.084       .  S
C134        C135   1.407       .  A
C134        C139   1.407       .  A
C134       C1170   1.478       .  S
C135        C136   1.404       .  A
C135        H140   1.083       .  S
C136        C137   1.401       .  A
C136       C1163   1.486       .  S
C137        C138   1.399       .  A
C137        H141   1.085       .  S
C138        C139   1.403       .  A
C138       C1153   1.483       .  S
C139        H142   1.083       .  S
O143        C146   1.266       .  A
O143       Cd148   2.482       .  S
C144       C1183   1.483       .  S
C144        O153   1.263       .  A
C144        O149   1.266       .  A
O145        C151   1.265       .  A
O145       Cd148   2.487   1_455  S
C146       C1140   1.470       .  S
C146        O154   1.264       .  A
C147       C1273   1.465       .  S
C147        O152   1.265       .  A
C147        O150   1.264       .  A
Cd148       O155   2.441   1_655  S
Cd148       O154   2.433       .  S
Cd148       O153   2.432   1_655  S
Cd148       O149   2.492   1_655  S
Cd148       O152   2.475       .  S
Cd148       O150   2.424       .  S
C151       C1150   1.484       .  S
C151        O155   1.263       .  A
C156        C157   1.405   1_554  A
C156        C161   1.408       .  A
C156       C1303   1.477   1_554  S
C157        C158   1.399       .  A
C157        H162   1.083       .  S
C158        C159   1.397   1_556  A
C158       C1203   1.472       .  S
C159        C160   1.398       .  A
C159        H163   1.085       .  S
C160        C161   1.405       .  A
C160       C1130   1.483       .  S
C161        H164   1.083       .  S
C165        C166   1.405       .  A
C165        C170   1.404       .  A
C165       C1293   1.474       .  S
C166        C167   1.402       .  A
C166        H171   1.084       .  S
C167        C168   1.401       .  A
C167       C1143   1.480       .  S
C168        C169   1.398       .  A
C168        H172   1.085       .  S
C169        C170   1.399       .  A
C169       C1120   1.476       .  S
C170        H173   1.084       .  S
O174        C177   1.265   1_655  A
O174       Cd179   2.496       .  S
C175       C1133   1.483       .  S
C175        O184   1.264       .  A
C175        O180   1.266       .  A
O176        C182   1.266       .  A
O176       Cd179   2.443       .  S
C177       C1160   1.479       .  S
C177        O185   1.263   1_455  A
C178       C1233   1.477       .  S
C178        O183   1.263       .  A
C178        O181   1.263       .  A
Cd179       O186   2.459       .  S
Cd179       O185   2.450       .  S
Cd179       O184   2.460       .  S
Cd179       O180   2.465       .  S
Cd179       O183   2.480       .  S
Cd179       O181   2.452       .  S
C182       C1123   1.480       .  S
C182        O186   1.265       .  A
C187        C188   1.409       .  A
C187        C192   1.409       .  A
C187       C1110   1.483       .  S
C188        C189   1.402       .  A
C188        H193   1.083       .  S
C189        C190   1.397       .  A
C189       C1100   1.477       .  S
C190        C191   1.397       .  A
C190        H194   1.085       .  S
C191        C192   1.404       .  A
C191       C1090   1.480       .  S
C192        H195   1.083       .  S
C196        C197   1.402       .  A
C196        C201   1.407       .  A
C196       C1080   1.471       .  S
C197        C198   1.397       .  A
C197        H202   1.084       .  S
C198        C199   1.401       .  A
C198       C1070   1.479       .  S
C199        C200   1.397       .  A
C199        H203   1.085       .  S
C200        C201   1.404       .  A
C200       C1060   1.481       .  S
C201        H204   1.083       .  S
O205        C208   1.266       .  A
O205       Cd210   2.466       .  S
C206       C1050   1.479       .  S
C206        O215   1.263       .  A
C206        O211   1.266       .  A
O207        C213   1.269       .  A
O207       Cd210   2.462       .  S
C208       C1093   1.489       .  S
C208        O216   1.265       .  A
C209       C1043   1.478       .  S
C209        O214   1.266       .  A
C209        O212   1.262       .  A
Cd210       O217   2.447       .  S
Cd210       O216   2.465       .  S
Cd210       O215   2.429       .  S
Cd210       O211   2.483       .  S
Cd210       O214   2.499       .  S
Cd210       O212   2.431       .  S
C213       C1063   1.481   1_554  S
C213        O217   1.266       .  A
C218        C219   1.404       .  A
C218        C223   1.409       .  A
C218       C1030   1.476       .  S
C219        C220   1.399       .  A
C219        H224   1.083       .  S
C220        C221   1.399       .  A
C220       C1020   1.479       .  S
C221        C222   1.398       .  A
C221        H225   1.085       .  S
C222        C223   1.406       .  A
C222       C1010   1.487       .  S
C223        H226   1.083       .  S
C227        C228   1.406       .  A
C227        C232   1.410       .  A
C227       C1000   1.480       .  S
C228        C229   1.399       .  A
C228        H233   1.083   1_556  S
C229        C230   1.398       .  A
C229       C1053   1.477   1_556  S
C230        C231   1.397       .  A
C230        H234   1.086       .  S
C231        C232   1.406       .  A
C231        C990   1.484       .  S
C232        H235   1.083       .  S
O236        C239   1.268       .  A
O236       Cd241   2.480       .  S
C237        C980   1.477       .  S
C237        O246   1.263       .  A
C237        O242   1.268       .  A
O238        C244   1.266       .  A
O238       Cd241   2.467       .  S
C239        C993   1.487       .  S
C239        O247   1.264       .  A
C240       C1073   1.473       .  S
C240        O245   1.265       .  A
C240        O243   1.263       .  A
Cd241       O248   2.448       .  S
Cd241       O247   2.452       .  S
Cd241       O246   2.422       .  S
Cd241       O242   2.487       .  S
Cd241       O245   2.467       .  S
Cd241       O243   2.429       .  S
C244       C1013   1.484       .  S
C244        O248   1.267       .  A
C249        C250   1.408       .  A
C249        C254   1.411       .  A
C249       C1243   1.482       .  S
C250        C251   1.399       .  A
C250        H255   1.083       .  S
C251        C252   1.395       .  A
C251       C1040   1.473       .  S
C252        C253   1.396       .  A
C252        H256   1.086       .  S
C253        C254   1.406       .  A
C253        C970   1.484       .  S
C254        H257   1.083       .  S
C258        C259   1.404       .  A
C258        C263   1.406       .  A
C258       C1250   1.475       .  S
C259        C260   1.400       .  A
C259        H264   1.084       .  S
C260        C261   1.400       .  A
C260        C983   1.475       .  S
C261        C262   1.396       .  A
C261        H265   1.085       .  S
C262        C263   1.401       .  A
C262        C960   1.475       .  S
C263        H266   1.084       .  S
O267        C270   1.265       .  A
O267       Cd272   2.491       .  S
C268        C973   1.483       .  S
C268        O277   1.264       .  A
C268        O273   1.266       .  A
O269        C275   1.265       .  A
O269       Cd272   2.493       .  S
C270       C1023   1.476       .  S
C270        O278   1.264       .  A
C271        C963   1.484       .  S
C271        O276   1.267       .  A
C271        O274   1.264       .  A
Cd272       O279   2.457       .  S
Cd272       O278   2.445       .  S
Cd272       O277   2.458       .  S
Cd272       O273   2.466       .  S
Cd272       O276   2.464       .  S
Cd272       O274   2.457       .  S
C275       C1103   1.480       .  S
C275        O279   1.263       .  A
C280        C281   1.406   1_554  A
C280        C285   1.408       .  A
C280       C1003   1.478   1_554  S
C281        C282   1.402       .  A
C281        H286   1.083       .  S
C282        C283   1.402   1_556  A
C282        C950   1.482       .  S
C283        C284   1.400       .  A
C283        H287   1.085       .  S
C284        C285   1.403       .  A
C284        C940   1.482       .  S
C285        H288   1.083       .  S
C289        C290   1.404       .  A
C289        C294   1.408       .  A
C289       C1033   1.477       .  S
C290        C291   1.398       .  A
C290        H295   1.084       .  S
C291        C292   1.400       .  A
C291        C933   1.475       .  S
C292        C293   1.398       .  A
C292        H296   1.085       .  S
C293        C294   1.403       .  A
C293        C920   1.479       .  S
C294        H297   1.083       .  S
O298        C301   1.266       .  A
O298       Cd303   2.485       .  S
C299        C900   1.480       .  S
C299        O308   1.262       .  A
C299        O304   1.265       .  A
O300        C306   1.266       .  A
O300       Cd303   2.472       .  S
C301        C943   1.488       .  S
C301        O309   1.264       .  A
C302        C923   1.483       .  S
C302        O307   1.265       .  A
C302        O305   1.263       .  A
Cd303       O310   2.426       .  S
Cd303       O309   2.454       .  S
Cd303       O308   2.456       .  S
Cd303       O304   2.502       .  S
Cd303       O307   2.476       .  S
Cd303       O305   2.463       .  S
C306        C913   1.466       .  S
C306        O310   1.265       .  A
C311        C312   1.408       .  A
C311        C316   1.409       .  A
C311        C890   1.483       .  S
C312        C313   1.403       .  A
C312        H317   1.083       .  S
C313        C314   1.398       .  A
C313        C883   1.478       .  S
C314        C315   1.398       .  A
C314        H318   1.085       .  S
C315        C316   1.404       .  A
C315        C870   1.481       .  S
C316        H319   1.083       .  S
C320        C321   1.402       .  A
C320        C325   1.409       .  A
C320        C853   1.475       .  S
C321        C322   1.396       .  A
C321        H326   1.084       .  S
C322        C323   1.398       .  A
C322        C910   1.471       .  S
C323        C324   1.398       .  A
C323        H327   1.085       .  S
C324        C325   1.406       .  A
C324        C863   1.482       .  S
C325        H328   1.083       .  S
O329        C332   1.266       .  A
O329       Cd334   2.498       .  S
C330        C953   1.493       .  S
C330        O339   1.265       .  A
C330        O335   1.264       .  A
O331        C337   1.267       .  A
O331       Cd334   2.513       .  S
C332        C873   1.486       .  S
C332        O340   1.262       .  A
C333        C860   1.484       .  S
C333        O338   1.266       .  A
C333        O336   1.263       .  A
Cd334       O341   2.428       .  S
Cd334       O340   2.471       .  S
Cd334       O339   2.487       .  S
Cd334       O335   2.475       .  S
Cd334       O338   2.501       .  S
Cd334       O336   2.436       .  S
C337        C840   1.481       .  S
C337        O341   1.263       .  A
C342        C343   1.404       .  A
C342        C347   1.408       .  A
C342       C1423   1.477       .  S
C343        C344   1.399       .  A
C343        H348   1.084       .  S
C344        C345   1.401       .  A
C344        C843   1.479       .  S
C345        C346   1.399       .  A
C345        H349   1.085       .  S
C346        C347   1.404       .  A
C346        C833   1.482       .  S
C347        H350   1.083       .  S
C351        C352   1.404       .  A
C351        C356   1.407       .  A
C351       C1453   1.476       .  S
C352        C353   1.400       .  A
C352        H357   1.083       .  S
C353        C354   1.401       .  A
C353        C903   1.483       .  S
C354        C355   1.402       .  A
C354        H358   1.085       .  S
C355        C356   1.406       .  A
C355        C823   1.490       .  S
C356        H359   1.083       .  S
O360        C363   1.265       .  A
O360       Cd365   2.505       .  S
C361        C830   1.487       .  S
C361        O370   1.266       .  A
C361        O366   1.265       .  A
O362        C368   1.265       .  A
O362       Cd365   2.467       .  S
C363        C930   1.473       .  S
C363        O371   1.261       .  A
C364        C880   1.488       .  S
C364        O369   1.266       .  A
C364        O367   1.263       .  A
Cd365       O372   2.486       .  S
Cd365       O371   2.418       .  S
Cd365       O370   2.468       .  S
Cd365       O366   2.473       .  S
Cd365       O369   2.504       .  S
Cd365       O367   2.453       .  S
C368        C820   1.481       .  S
C368        O372   1.266       .  A
C373        C374   1.406       .  A
C373        C378   1.407       .  A
C373       C1353   1.478       .  S
C374        C375   1.402       .  A
C374        H379   1.083       .  S
C375        C376   1.399       .  A
C375        C810   1.479       .  S
C376        C377   1.399       .  A
C376        H380   1.085       .  S
C377        C378   1.404       .  A
C377        C803   1.486       .  S
C378        H381   1.083       .  S
C382        C383   1.404       .  A
C382        C387   1.407       .  A
C382       C1370   1.475       .  S
C383        C384   1.399       .  A
C383        H388   1.083       .  S
C384        C385   1.400       .  A
C384        C790   1.477       .  S
C385        C386   1.398       .  A
C385        H389   1.085       .  S
C386        C387   1.403       .  A
C386        C783   1.479       .  S
C387        H390   1.083       .  S
O391        C394   1.267       .  A
O391       Cd396   2.491       .  S
C392        C760   1.476       .  S
C392        O401   1.264       .  A
C392        O397   1.266       .  A
O393        C399   1.266       .  A
O393       Cd396   2.493   1_565  S
C394        C800   1.479       .  S
C394        O402   1.264       .  A
C395        C780   1.486       .  S
C395        O400   1.264       .  A
C395        O398   1.263       .  A
Cd396       O403   2.412   1_545  S
Cd396       O402   2.422       .  S
Cd396       O401   2.437   1_545  S
Cd396       O397   2.468   1_545  S
Cd396       O400   2.484       .  S
Cd396       O398   2.463       .  S
C399        C770   1.468       .  S
C399        O403   1.262       .  A
C404        C405   1.402       .  A
C404        C409   1.407       .  A
C404       C1083   1.475       .  S
C405        C406   1.396       .  A
C405        H410   1.084       .  S
C406        C407   1.400       .  A
C406        C773   1.475       .  S
C407        C408   1.401       .  A
C407        H411   1.085       .  S
C408        C409   1.405       .  A
C408        C750   1.485       .  S
C409        H412   1.084       .  S
C413        C414   1.408       .  A
C413        C418   1.409       .  A
C413       C1113   1.486       .  S
C414        C415   1.403       .  A
C414        H419   1.084       .  S
C415        C416   1.398       .  A
C415        C730   1.483       .  S
C416        C417   1.400       .  A
C416        H420   1.085       .  S
C417        C418   1.405       .  A
C417        C743   1.484       .  S
C418        H421   1.083       .  S
O422        C425   1.266       .  A
O422       Cd427   2.486       .  S
C423        C813   1.475       .  S
C423        O432   1.263       .  A
C423        O428   1.266       .  A
O424        C430   1.265       .  A
O424       Cd427   2.502       .  S
C425        C733   1.486       .  S
C425        O433   1.264       .  A
C426        C753   1.486       .  S
C426        O431   1.266       .  A
C426        O429   1.263       .  A
Cd427       O434   2.435       .  S
Cd427       O433   2.452       .  S
Cd427       O432   2.434       .  S
Cd427       O428   2.501       .  S
Cd427       O431   2.501       .  S
Cd427       O429   2.438       .  S
C430        C723   1.472       .  S
C430        O434   1.262       .  A
C435        C436   1.407       .  A
C435        C440   1.411       .  A
C435        C700   1.483       .  S
C436        C437   1.400       .  A
C436        H441   1.083       .  S
C437        C438   1.399       .  A
C437        C720   1.477       .  S
C438        C439   1.399       .  A
C438        H442   1.085       .  S
C439        C440   1.407       .  A
C439        C713   1.486       .  S
C440        H443   1.083       .  S
C444        C445   1.401       .  A
C444        C449   1.407   1_556  A
C444        C690   1.474       .  S
C445        C446   1.398       .  A
C445        H450   1.084       .  S
C446        C447   1.401   1_556  A
C446        C763   1.478       .  S
C447        C448   1.402       .  A
C447        H451   1.085       .  S
C448        C449   1.406       .  A
C448        C683   1.490       .  S
C449        H452   1.083       .  S
O453        C456   1.264       .  A
O453       Cd458   2.492       .  S
C454        C793   1.479   1_565  S
C454        O463   1.264       .  A
C454        O459   1.267       .  A
O455        C461   1.267       .  A
O455       Cd458   2.494       .  S
C456        C710   1.490       .  S
C456        O464   1.264       .  A
C457        C680   1.477       .  S
C457        O462   1.265       .  A
C457        O460   1.262       .  A
Cd458       O465   2.464       .  S
Cd458       O464   2.470       .  S
Cd458       O463   2.438       .  S
Cd458       O459   2.493       .  S
Cd458       O462   2.491       .  S
Cd458       O460   2.471       .  S
C461        C740   1.484       .  S
C461        O465   1.266       .  A
C466        C467   1.403       .  A
C466        C471   1.410       .  A
C466        C850   1.477       .  S
C467        C468   1.398       .  A
C467        H472   1.084       .  S
C468        C469   1.399       .  A
C468        C670   1.475       .  S
C469        C470   1.398       .  A
C469        H473   1.085       .  S
C470        C471   1.405       .  A
C470        C663   1.481       .  S
C471        H474   1.083       .  S
C475        C476   1.409       .  A
C475        C480   1.411       .  A
C475        C893   1.486       .  S
C476        C477   1.401       .  A
C476        H481   1.083       .  S
C477        C478   1.397       .  A
C477        C650   1.478       .  S
C478        C479   1.398       .  A
C478        H482   1.085       .  S
C479        C480   1.407       .  A
C479        C643   1.488       .  S
C480        H483   1.083       .  S
O484        C487   1.269       .  A
O484       Cd489   2.479       .  S
C485        C630   1.477       .  S
C485        O494   1.261       .  A
C485        O490   1.264       .  A
O486        C492   1.266       .  A
O486       Cd489   2.482       .  S
C487        C640   1.486       .  S
C487        O495   1.267       .  A
C488        C623   1.473       .  S
C488        O493   1.264       .  A
C488        O491   1.262       .  A
Cd489       O496   2.452       .  S
Cd489       O495   2.445       .  S
Cd489       O494   2.452   1_545  S
Cd489       O490   2.511   1_545  S
Cd489       O493   2.503       .  S
Cd489       O491   2.452       .  S
C492        C660   1.485       .  S
C492        O496   1.262       .  A
C497        C498   1.409       .  A
C497        C502   1.408       .  A
C497       C1173   1.482       .  S
C498        C499   1.404       .  A
C498        H503   1.083       .  S
C499        C500   1.401       .  A
C499        C633   1.487       .  S
C500        C501   1.396       .  A
C500        H504   1.085       .  S
C501        C502   1.400       .  A
C501        C613   1.476       .  S
C502        H505   1.083       .  S
C506        C507   1.407       .  A
C506        C511   1.408       .  A
C506       C1193   1.479       .  S
C507        C508   1.402       .  A
C507        H512   1.083       .  S
C508        C509   1.399       .  A
C508        C600   1.479       .  S
C509        C510   1.397       .  A
C509        H513   1.085       .  S
C510        C511   1.403       .  A
C510        C590   1.480       .  S
C511        H514   1.083       .  S
O515        C518   1.266       .  A
O515       Cd520   2.476       .  S
C516        C610   1.480       .  S
C516        O525   1.263       .  A
C516        O521   1.265       .  A
O517        C523   1.267       .  A
O517       Cd520   2.473       .  S
C518        C583   1.469       .  S
C518        O526   1.263       .  A
C519        C593   1.478   1_554  S
C519        O524   1.264       .  A
C519        O522   1.264       .  A
Cd520       O527   2.408       .  S
Cd520       O526   2.436       .  S
Cd520       O525   2.429       .  S
Cd520       O521   2.487       .  S
Cd520       O524   2.479       .  S
Cd520       O522   2.441       .  S
C523        C673   1.467   1_565  S
C523        O527   1.265       .  A
C528        C529   1.407       .  A
C528        C533   1.410       .  A
C528        C703   1.483       .  S
C529        C530   1.402       .  A
C529        H534   1.084       .  S
C530        C531   1.399       .  A
C530        C620   1.479       .  S
C531        C532   1.397       .  A
C531        H535   1.085       .  S
C532        C533   1.405       .  A
C532        C573   1.481       .  S
C533        H536   1.083       .  S
C537        C538   1.401   1_556  A
C537        C542   1.407       .  A
C537        C693   1.475       .  S
C538        C539   1.396   1_554  A
C538        H543   1.083       .  S
C539        C540   1.400       .  A
C539        C580   1.476   1_556  S
C540        C541   1.405       .  A
C540        H544   1.084       .  S
C541        C542   1.410       .  A
C541        C560   1.498       .  S
C542        H545   1.083       .  S
O546        C549   1.265       .  A
O546       Cd551   2.486       .  S
C547        C603   1.476       .  S
C547        O556   1.260       .  A
C547        O552   1.266       .  A
O548        C554   1.266   1_545  A
O548       Cd551   2.509   1_545  S
C549        C570   1.490       .  S
C549        O557   1.264       .  A
C550        C653   1.476       .  S
C550        O555   1.265       .  A
C550        O553   1.263       .  A
Cd551       O558   2.429       .  S
Cd551       O557   2.457       .  S
Cd551       O556   2.428       .  S
Cd551       O552   2.515       .  S
Cd551       O555   2.497   1_565  S
Cd551       O553   2.444   1_565  S
C554        C563   1.476       .  S
C554        O558   1.262       .  A
C559        C560   1.421       .  A
C559        C564   1.402       .  A
C559       Br566   1.936       .  S
C560        C561   1.420   1_565  A
C561        C562   1.415       .  A
C561       Br568   1.930       .  S
C562        C563   1.407   1_545  A
C562       Br567   1.928       .  S
C563        C564   1.405       .  A
C564       Br565   1.936       .  S
C569        C570   1.416       .  A
C569        C574   1.408       .  A
C569       Br576   1.933   1_565  S
C570        C571   1.418       .  A
C571        C572   1.411       .  A
C571       Br578   1.932       .  S
C572        C573   1.408       .  A
C572       Br577   1.932       .  S
C573        C574   1.407       .  A
C574       Br575   1.929   1_565  S
C579        C580   1.412       .  A
C579        C584   1.403       .  A
C579       Br586   1.929       .  S
C580        C581   1.406       .  A
C581        C582   1.408       .  A
C581       Br588   1.926   1_565  S
C582        C583   1.409       .  A
C582       Br587   1.927   1_565  S
C583        C584   1.406       .  A
C584       Br585   1.932       .  S
C589        C590   1.409       .  A
C589        C594   1.405       .  A
C589       Br596   1.928       .  S
C590        C591   1.410       .  A
C591        C592   1.409       .  A
C591       Br598   1.930       .  S
C592        C593   1.411       .  A
C592       Br597   1.930       .  S
C593        C594   1.412       .  A
C594       Br595   1.934   1_556  S
C599        C600   1.410       .  A
C599        C604   1.411       .  A
C599       Br606   1.928       .  S
C600        C601   1.409       .  A
C601        C602   1.403       .  A
C601       Br608   1.933       .  S
C602        C603   1.410       .  A
C602       Br607   1.932       .  S
C603        C604   1.410       .  A
C604       Br605   1.928       .  S
C609        C610   1.413       .  A
C609        C614   1.408       .  A
C609       Br616   1.931       .  S
C610        C611   1.414       .  A
C611        C612   1.405       .  A
C611       Br618   1.933       .  S
C612        C613   1.405       .  A
C612       Br617   1.928       .  S
C613        C614   1.408       .  A
C614       Br615   1.929       .  S
C619        C620   1.411   1_545  A
C619        C624   1.406       .  A
C619       Br626   1.930       .  S
C620        C621   1.409       .  A
C621        C622   1.407       .  A
C621       Br628   1.929       .  S
C622        C623   1.409   1_565  A
C622       Br627   1.921       .  S
C623        C624   1.406       .  A
C624       Br625   1.929       .  S
C629        C630   1.408       .  A
C629        C634   1.401       .  A
C629       Br636   1.926       .  S
C630        C631   1.410       .  A
C631        C632   1.414       .  A
C631       Br638   1.928       .  S
C632        C633   1.414       .  A
C632       Br637   1.929       .  S
C633        C634   1.411       .  A
C634       Br635   1.933       .  S
C639        C640   1.414       .  A
C639        C644   1.410       .  A
C639       Br646   1.933       .  S
C640        C641   1.413       .  A
C641        C642   1.409       .  A
C641       Br648   1.932   1_545  S
C642        C643   1.413       .  A
C642       Br647   1.933       .  S
C643        C644   1.410       .  A
C644       Br645   1.930       .  S
C649        C650   1.408       .  A
C649        C654   1.405       .  A
C649       Br656   1.930       .  S
C650        C651   1.410       .  A
C651        C652   1.410       .  A
C651       Br658   1.929       .  S
C652        C653   1.411       .  A
C652       Br657   1.929       .  S
C653        C654   1.409       .  A
C654       Br655   1.930       .  S
C659        C660   1.416       .  A
C659        C664   1.406       .  A
C659       Br666   1.936       .  S
C660        C661   1.415       .  A
C661        C662   1.410       .  A
C661       Br668   1.930       .  S
C662        C663   1.408       .  A
C662       Br667   1.929       .  S
C663        C664   1.408       .  A
C664       Br665   1.928       .  S
C669        C670   1.410       .  A
C669        C674   1.409       .  A
C669       Br676   1.929       .  S
C670        C671   1.409       .  A
C671        C672   1.400       .  A
C671       Br678   1.931       .  S
C672        C673   1.407       .  A
C672       Br677   1.933   1_545  S
C673        C674   1.410       .  A
C674       Br675   1.929       .  S
C679        C680   1.408       .  A
C679        C684   1.412       .  A
C679       Br686   1.929       .  S
C680        C681   1.408       .  A
C681        C682   1.407       .  A
C681       Br688   1.933   1_565  S
C682        C683   1.415       .  A
C682       Br687   1.934   1_565  S
C683        C684   1.414       .  A
C684       Br685   1.929       .  S
C689        C690   1.408       .  A
C689        C694   1.406       .  A
C689       Br696   1.929       .  S
C690        C691   1.409       .  A
C691        C692   1.406       .  A
C691       Br698   1.929   1_566  S
C692        C693   1.408       .  A
C692       Br697   1.930   1_565  S
C693        C694   1.409       .  A
C694       Br695   1.926       .  S
C699        C700   1.410       .  A
C699        C704   1.409       .  A
C699       Br706   1.929       .  S
C700        C701   1.410       .  A
C701        C702   1.408       .  A
C701       Br708   1.929   1_565  S
C702        C703   1.409       .  A
C702       Br707   1.929   1_565  S
C703        C704   1.410       .  A
C704       Br705   1.929       .  S
C709        C710   1.416       .  A
C709        C714   1.410       .  A
C709       Br716   1.932   1_565  S
C710        C711   1.416       .  A
C711        C712   1.410       .  A
C711       Br718   1.933       .  S
C712        C713   1.409       .  A
C712       Br717   1.929       .  S
C713        C714   1.410       .  A
C714       Br715   1.933   1_565  S
C719        C720   1.408       .  A
C719        C724   1.404       .  A
C719       Br726   1.930       .  S
C720        C721   1.410       .  A
C721        C722   1.409       .  A
C721       Br728   1.927       .  S
C722        C723   1.408       .  A
C722       Br727   1.929       .  S
C723        C724   1.408       .  A
C724       Br725   1.930       .  S
C729        C730   1.409       .  A
C729        C734   1.409       .  A
C729       Br736   1.930       .  S
C730        C731   1.410       .  A
C731        C732   1.409       .  A
C731       Br738   1.933       .  S
C732        C733   1.415       .  A
C732       Br737   1.932       .  S
C733        C734   1.415       .  A
C734       Br735   1.932       .  S
C739        C740   1.411       .  A
C739        C744   1.409       .  A
C739       Br746   1.930       .  S
C740        C741   1.411       .  A
C741        C742   1.408       .  A
C741       Br748   1.923       .  S
C742        C743   1.409       .  A
C742       Br747   1.930       .  S
C743        C744   1.411       .  A
C744       Br745   1.931       .  S
C749        C750   1.411       .  A
C749        C754   1.408       .  A
C749       Br756   1.932       .  S
C750        C751   1.411       .  A
C751        C752   1.410       .  A
C751       Br758   1.932       .  S
C752        C753   1.415       .  A
C752       Br757   1.931       .  S
C753        C754   1.414       .  A
C754       Br755   1.934       .  S
C759        C760   1.411       .  A
C759        C764   1.406       .  A
C759       Br766   1.933   1_565  S
C760        C761   1.411       .  A
C761        C762   1.405       .  A
C761       Br768   1.927       .  S
C762        C763   1.407       .  A
C762       Br767   1.930       .  S
C763        C764   1.412       .  A
C764       Br765   1.931   1_565  S
C769        C770   1.407       .  A
C769        C774   1.401       .  A
C769       Br776   1.931       .  S
C770        C771   1.409       .  A
C771        C772   1.408       .  A
C771       Br778   1.927       .  S
C772        C773   1.410       .  A
C772       Br777   1.929       .  S
C773        C774   1.409       .  A
C774       Br775   1.932       .  S
C779        C780   1.416   1_554  A
C779        C784   1.409       .  A
C779       Br786   1.932   1_554  S
C780        C781   1.416   1_556  A
C781        C782   1.408       .  A
C781       Br788   1.932   1_554  S
C782        C783   1.406       .  A
C782       Br787   1.930       .  S
C783        C784   1.408       .  A
C784       Br785   1.930       .  S
C789        C790   1.409       .  A
C789        C794   1.411       .  A
C789       Br796   1.929       .  S
C790        C791   1.407       .  A
C791        C792   1.402       .  A
C791       Br798   1.933       .  S
C792        C793   1.410       .  A
C792       Br797   1.923   1_545  S
C793        C794   1.413       .  A
C794       Br795   1.929       .  S
C799        C800   1.411       .  A
C799        C804   1.406       .  A
C799       Br806   1.934       .  S
C800        C801   1.412       .  A
C801        C802   1.409       .  A
C801       Br808   1.931       .  S
C802        C803   1.413       .  A
C802       Br807   1.932       .  S
C803        C804   1.412       .  A
C804       Br805   1.928       .  S
C809        C810   1.408       .  A
C809        C814   1.404   1_545  A
C809       Br816   1.931       .  S
C810        C811   1.411       .  A
C811        C812   1.410       .  A
C811       Br818   1.928       .  S
C812        C813   1.410   1_545  A
C812       Br817   1.929       .  S
C813        C814   1.410       .  A
C814       Br815   1.931       .  S
C819        C820   1.410       .  A
C819        C824   1.413       .  A
C819       Br826   1.930       .  S
C820        C821   1.411       .  A
C821        C822   1.406       .  A
C821       Br828   1.931       .  S
C822        C823   1.414       .  A
C822       Br827   1.937       .  S
C823        C824   1.414       .  A
C824       Br825   1.929       .  S
C829        C830   1.415       .  A
C829        C834   1.409       .  A
C829       Br836   1.932       .  S
C830        C831   1.416       .  A
C831        C832   1.409       .  A
C831       Br838   1.932       .  S
C832        C833   1.408       .  A
C832       Br837   1.932       .  S
C833        C834   1.408       .  A
C834       Br835   1.930       .  S
C839        C840   1.412       .  A
C839        C844   1.410       .  A
C839       Br846   1.923       .  S
C840        C841   1.409       .  A
C841        C842   1.403       .  A
C841       Br848   1.926       .  S
C842        C843   1.408       .  A
C842       Br847   1.931       .  S
C843        C844   1.410       .  A
C844       Br845   1.931       .  S
C849        C850   1.410       .  A
C849        C854   1.405       .  A
C849       Br856   1.926       .  S
C850        C851   1.409       .  A
C851        C852   1.406       .  A
C851       Br858   1.930       .  S
C852        C853   1.409       .  A
C852       Br857   1.928       .  S
C853        C854   1.408       .  A
C854       Br855   1.930       .  S
C859        C860   1.414       .  A
C859        C864   1.406   1_556  A
C859       Br866   1.934       .  S
C860        C861   1.413   1_556  A
C861        C862   1.411       .  A
C861       Br868   1.930       .  S
C862        C863   1.411       .  A
C862       Br867   1.931       .  S
C863        C864   1.408       .  A
C864       Br865   1.929       .  S
C869        C870   1.407       .  A
C869        C874   1.408       .  A
C869       Br876   1.933       .  S
C870        C871   1.408       .  A
C871        C872   1.411       .  A
C871       Br878   1.928       .  S
C872        C873   1.413       .  A
C872       Br877   1.930       .  S
C873        C874   1.416       .  A
C874       Br875   1.930       .  S
C879        C880   1.416       .  A
C879        C884   1.410       .  A
C879       Br886   1.930       .  S
C880        C881   1.415       .  A
C881        C882   1.407       .  A
C881       Br888   1.929       .  S
C882        C883   1.405       .  A
C882       Br887   1.930       .  S
C883        C884   1.407       .  A
C884       Br885   1.929       .  S
C889        C890   1.410       .  A
C889        C894   1.410       .  A
C889       Br896   1.929       .  S
C890        C891   1.409       .  A
C891        C892   1.409       .  A
C891       Br898   1.930       .  S
C892        C893   1.412       .  A
C892       Br897   1.930       .  S
C893        C894   1.411       .  A
C894       Br895   1.930       .  S
C899        C900   1.411       .  A
C899        C904   1.406       .  A
C899       Br906   1.926       .  S
C900        C901   1.410       .  A
C901        C902   1.409       .  A
C901       Br908   1.931       .  S
C902        C903   1.414       .  A
C902       Br907   1.930       .  S
C903        C904   1.408       .  A
C904       Br905   1.931       .  S
C909        C910   1.408       .  A
C909        C914   1.406       .  A
C909       Br916   1.929       .  S
C910        C911   1.408       .  A
C911        C912   1.403       .  A
C911       Br918   1.931       .  S
C912        C913   1.406       .  A
C912       Br917   1.927       .  S
C913        C914   1.407       .  A
C914       Br915   1.926       .  S
C919        C920   1.407       .  A
C919        C924   1.409       .  A
C919       Br926   1.929       .  S
C920        C921   1.407       .  A
C921        C922   1.407       .  A
C921       Br928   1.930       .  S
C922        C923   1.415       .  A
C922       Br927   1.933       .  S
C923        C924   1.415       .  A
C924       Br925   1.931       .  S
C929        C930   1.411       .  A
C929        C934   1.408       .  A
C929       Br936   1.927       .  S
C930        C931   1.408       .  A
C931        C932   1.402       .  A
C931       Br938   1.930       .  S
C932        C933   1.407       .  A
C932       Br937   1.929       .  S
C933        C934   1.409       .  A
C934       Br935   1.928       .  S
C939        C940   1.408       .  A
C939        C944   1.409       .  A
C939       Br946   1.929       .  S
C940        C941   1.406       .  A
C941        C942   1.409       .  A
C941       Br948   1.929       .  S
C942        C943   1.417       .  A
C942       Br947   1.932       .  S
C943        C944   1.416       .  A
C944       Br945   1.932       .  S
C949        C950   1.408       .  A
C949        C954   1.412       .  A
C949       Br956   1.929       .  S
C950        C951   1.406       .  A
C951        C952   1.406       .  A
C951       Br958   1.933       .  S
C952        C953   1.418       .  A
C952       Br957   1.925       .  S
C953        C954   1.417       .  A
C954       Br955   1.931       .  S
C959        C960   1.406       .  A
C959        C964   1.409       .  A
C959       Br966   1.929       .  S
C960        C961   1.406       .  A
C961        C962   1.405       .  A
C961       Br968   1.931       .  S
C962        C963   1.415       .  A
C962       Br967   1.928       .  S
C963        C964   1.414       .  A
C964       Br965   1.930       .  S
C969        C970   1.410       .  A
C969        C974   1.410       .  A
C969       Br976   1.930       .  S
C970        C971   1.412       .  A
C971        C972   1.406       .  A
C971       Br978   1.934       .  S
C972        C973   1.413       .  A
C972       Br977   1.933       .  S
C973        C974   1.415       .  A
C974       Br975   1.932       .  S
C979        C980   1.414       .  A
C979        C984   1.403       .  A
C979       Br986   1.930       .  S
C980        C981   1.411       .  A
C981        C982   1.409       .  A
C981       Br988   1.930       .  S
C982        C983   1.410       .  A
C982       Br987   1.931       .  S
C983        C984   1.405       .  A
C984       Br985   1.933       .  S
C989        C990   1.410       .  A
C989        C994   1.411       .  A
C989       Br996   1.930       .  S
C990        C991   1.410       .  A
C991        C992   1.408       .  A
C991       Br998   1.934       .  S
C992        C993   1.416       .  A
C992       Br997   1.934       .  S
C993        C994   1.415       .  A
C994       Br995   1.931       .  S
C999       C1000   1.410       .  A
C999       C1004   1.407       .  A
C999      Br1006   1.930       .  S
C1000      C1001   1.410       .  A
C1001      C1002   1.408       .  A
C1001     Br1008   1.929       .  S
C1002      C1003   1.409       .  A
C1002     Br1007   1.929       .  S
C1003      C1004   1.408       .  A
C1004     Br1005   1.929   1_556  S
C1009      C1010   1.412       .  A
C1009      C1014   1.408       .  A
C1009     Br1016   1.928       .  S
C1010      C1011   1.412       .  A
C1011      C1012   1.408       .  A
C1011     Br1018   1.933       .  S
C1012      C1013   1.414       .  A
C1012     Br1017   1.932       .  S
C1013      C1014   1.413       .  A
C1014     Br1015   1.934       .  S
C1019      C1020   1.408       .  A
C1019      C1024   1.401       .  A
C1019     Br1026   1.935       .  S
C1020      C1021   1.411       .  A
C1021      C1022   1.411       .  A
C1021     Br1028   1.929       .  S
C1022      C1023   1.411       .  A
C1022     Br1027   1.930       .  S
C1023      C1024   1.409       .  A
C1024     Br1025   1.922       .  S
C1029      C1030   1.408       .  A
C1029      C1034   1.406       .  A
C1029     Br1036   1.929       .  S
C1030      C1031   1.408       .  A
C1031      C1032   1.407       .  A
C1031     Br1038   1.929       .  S
C1032      C1033   1.410       .  A
C1032     Br1037   1.930       .  S
C1033      C1034   1.410       .  A
C1034     Br1035   1.930       .  S
C1039      C1040   1.404       .  A
C1039      C1044   1.403       .  A
C1039     Br1046   1.932       .  S
C1040      C1041   1.408       .  A
C1041      C1042   1.409       .  A
C1041     Br1048   1.929       .  S
C1042      C1043   1.412       .  A
C1042     Br1047   1.929       .  S
C1043      C1044   1.414       .  A
C1044     Br1045   1.929       .  S
C1049      C1050   1.414       .  A
C1049      C1054   1.402       .  A
C1049     Br1056   1.930       .  S
C1050      C1051   1.414       .  A
C1051      C1052   1.409       .  A
C1051     Br1058   1.931       .  S
C1052      C1053   1.409       .  A
C1052     Br1057   1.930       .  S
C1053      C1054   1.406       .  A
C1054     Br1055   1.934   1_554  S
C1059      C1060   1.409       .  A
C1059      C1064   1.409       .  A
C1059     Br1066   1.930       .  S
C1060      C1061   1.411       .  A
C1061      C1062   1.407       .  A
C1061     Br1068   1.934       .  S
C1062      C1063   1.414       .  A
C1062     Br1067   1.933       .  S
C1063      C1064   1.413       .  A
C1064     Br1065   1.931   1_556  S
C1069      C1070   1.408       .  A
C1069      C1074   1.402       .  A
C1069     Br1076   1.933       .  S
C1070      C1071   1.414       .  A
C1071      C1072   1.407       .  A
C1071     Br1078   1.931       .  S
C1072      C1073   1.411       .  A
C1072     Br1077   1.933       .  S
C1073      C1074   1.412       .  A
C1074     Br1075   1.930       .  S
C1079      C1080   1.409       .  A
C1079      C1084   1.405       .  A
C1079     Br1086   1.930       .  S
C1080      C1081   1.406       .  A
C1081      C1082   1.405       .  A
C1081     Br1088   1.930       .  S
C1082      C1083   1.412       .  A
C1082     Br1087   1.931       .  S
C1083      C1084   1.408       .  A
C1084     Br1085   1.929       .  S
C1089      C1090   1.406       .  A
C1089      C1094   1.409       .  A
C1089     Br1096   1.930       .  S
C1090      C1091   1.407       .  A
C1091      C1092   1.408       .  A
C1091     Br1098   1.932       .  S
C1092      C1093   1.418       .  A
C1092     Br1097   1.933       .  S
C1093      C1094   1.418       .  A
C1094     Br1095   1.932       .  S
C1099      C1100   1.407       .  A
C1099      C1104   1.408       .  A
C1099     Br1106   1.929       .  S
C1100      C1101   1.408       .  A
C1101      C1102   1.407       .  A
C1101     Br1108   1.930       .  S
C1102      C1103   1.412       .  A
C1102     Br1107   1.930       .  S
C1103      C1104   1.412       .  A
C1104     Br1105   1.930       .  S
C1109      C1110   1.410       .  A
C1109      C1114   1.410       .  A
C1109     Br1116   1.929       .  S
C1110      C1111   1.410       .  A
C1111      C1112   1.409       .  A
C1111     Br1118   1.930       .  S
C1112      C1113   1.412       .  A
C1112     Br1117   1.930       .  S
C1113      C1114   1.412       .  A
C1114     Br1115   1.930       .  S
C1119      C1120   1.410       .  A
C1119      C1124   1.407       .  A
C1119     Br1126   1.933   1_655  S
C1120      C1121   1.406       .  A
C1121      C1122   1.406       .  A
C1121     Br1128   1.929       .  S
C1122      C1123   1.414       .  A
C1122     Br1127   1.931       .  S
C1123      C1124   1.414       .  A
C1124     Br1125   1.932   1_655  S
C1129      C1130   1.411       .  A
C1129      C1134   1.407       .  A
C1129     Br1136   1.933       .  S
C1130      C1131   1.410       .  A
C1131      C1132   1.409       .  A
C1131     Br1138   1.929   1_655  S
C1132      C1133   1.414       .  A
C1132     Br1137   1.932   1_655  S
C1133      C1134   1.414       .  A
C1134     Br1135   1.932       .  S
C1139      C1140   1.409       .  A
C1139      C1144   1.411       .  A
C1139     Br1146   1.928       .  S
C1140      C1141   1.407       .  A
C1141      C1142   1.401       .  A
C1141     Br1148   1.934   1_655  S
C1142      C1143   1.412       .  A
C1142     Br1147   1.934   1_655  S
C1143      C1144   1.412       .  A
C1144     Br1145   1.929       .  S
C1149      C1150   1.413       .  A
C1149      C1154   1.407       .  A
C1149     Br1156   1.934       .  S
C1150      C1151   1.415       .  A
C1151      C1152   1.409       .  A
C1151     Br1158   1.931   1_455  S
C1152      C1153   1.410       .  A
C1152     Br1157   1.932       .  S
C1153      C1154   1.410       .  A
C1154     Br1155   1.929       .  S
C1159      C1160   1.410       .  A
C1159      C1164   1.405       .  A
C1159     Br1166   1.929       .  S
C1160      C1161   1.411       .  A
C1161      C1162   1.411       .  A
C1161     Br1168   1.931       .  S
C1162      C1163   1.413       .  A
C1162     Br1167   1.929       .  S
C1163      C1164   1.412       .  A
C1164     Br1165   1.934       .  S
C1169      C1170   1.409       .  A
C1169      C1174   1.409       .  A
C1169     Br1176   1.928       .  S
C1170      C1171   1.408       .  A
C1171      C1172   1.406       .  A
C1171     Br1178   1.930       .  S
C1172      C1173   1.412       .  A
C1172     Br1177   1.930       .  S
C1173      C1174   1.411       .  A
C1174     Br1175   1.930       .  S
C1179      C1180   1.411       .  A
C1179      C1184   1.407       .  A
C1179     Br1186   1.929       .  S
C1180      C1181   1.413       .  A
C1181      C1182   1.409       .  A
C1181     Br1188   1.933       .  S
C1182      C1183   1.414       .  A
C1182     Br1187   1.932       .  S
C1183      C1184   1.413       .  A
C1184     Br1185   1.934       .  S
C1189      C1190   1.410       .  A
C1189      C1194   1.407       .  A
C1189     Br1196   1.928       .  S
C1190      C1191   1.408       .  A
C1191      C1192   1.407       .  A
C1191     Br1198   1.929       .  S
C1192      C1193   1.410       .  A
C1192     Br1197   1.927       .  S
C1193      C1194   1.409       .  A
C1194     Br1195   1.929       .  S
C1199      C1200   1.411       .  A
C1199      C1204   1.407       .  A
C1199     Br1206   1.929       .  S
C1200      C1201   1.410       .  A
C1201      C1202   1.405       .  A
C1201     Br1208   1.924       .  S
C1202      C1203   1.405       .  A
C1202     Br1207   1.929       .  S
C1203      C1204   1.407       .  A
C1204     Br1205   1.929       .  S
C1209      C1210   1.411       .  A
C1209      C1214   1.407   1_655  A
C1209     Br1216   1.930       .  S
C1210      C1211   1.409   1_655  A
C1211      C1212   1.406       .  A
C1211     Br1218   1.926       .  S
C1212      C1213   1.408       .  A
C1212     Br1217   1.929       .  S
C1213      C1214   1.408       .  A
C1214     Br1215   1.930       .  S
C1219      C1220   1.411       .  A
C1219      C1224   1.410       .  A
C1219     Br1226   1.929       .  S
C1220      C1221   1.413       .  A
C1221      C1222   1.408       .  A
C1221     Br1228   1.934       .  S
C1222      C1223   1.412       .  A
C1222     Br1227   1.932       .  S
C1223      C1224   1.413       .  A
C1224     Br1225   1.932   1_554  S
C1229      C1230   1.407       .  A
C1229      C1234   1.405       .  A
C1229     Br1236   1.929       .  S
C1230      C1231   1.406       .  A
C1231      C1232   1.407       .  A
C1231     Br1238   1.930       .  S
C1232      C1233   1.413       .  A
C1232     Br1237   1.930       .  S
C1233      C1234   1.411       .  A
C1234     Br1235   1.931       .  S
C1239      C1240   1.409       .  A
C1239      C1244   1.408       .  A
C1239     Br1246   1.929       .  S
C1240      C1241   1.408       .  A
C1241      C1242   1.407       .  A
C1241     Br1248   1.930       .  S
C1242      C1243   1.412       .  A
C1242     Br1247   1.931       .  S
C1243      C1244   1.411       .  A
C1244     Br1245   1.930       .  S
C1249      C1250   1.410       .  A
C1249      C1254   1.404       .  A
C1249     Br1256   1.928       .  S
C1250      C1251   1.409       .  A
C1251      C1252   1.406       .  A
C1251     Br1258   1.930       .  S
C1252      C1253   1.409       .  A
C1252     Br1257   1.928       .  S
C1253      C1254   1.406       .  A
C1254     Br1255   1.930       .  S
C1259      C1260   1.411       .  A
C1259      C1264   1.405       .  A
C1259     Br1266   1.928       .  S
C1260      C1261   1.412       .  A
C1261      C1262   1.409       .  A
C1261     Br1268   1.931       .  S
C1262      C1263   1.410       .  A
C1262     Br1267   1.930       .  S
C1263      C1264   1.409       .  A
C1264     Br1265   1.933       .  S
C1269      C1270   1.408       .  A
C1269      C1274   1.401       .  A
C1269     Br1276   1.932       .  S
C1270      C1271   1.410       .  A
C1271      C1272   1.408       .  A
C1271     Br1278   1.928       .  S
C1272      C1273   1.407       .  A
C1272     Br1277   1.928       .  S
C1273      C1274   1.407       .  A
C1274     Br1275   1.931       .  S
C1279      C1280   1.410       .  A
C1279      C1284   1.405       .  A
C1279     Br1286   1.933       .  S
C1280      C1281   1.409   1_655  A
C1281      C1282   1.409       .  A
C1281     Br1288   1.932       .  S
C1282      C1283   1.416   1_455  A
C1282     Br1287   1.931       .  S
C1283      C1284   1.415       .  A
C1284     Br1285   1.936       .  S
C1289      C1290   1.408       .  A
C1289      C1294   1.407       .  A
C1289     Br1296   1.929   1_655  S
C1290      C1291   1.411       .  A
C1291      C1292   1.404       .  A
C1291     Br1298   1.931       .  S
C1292      C1293   1.407       .  A
C1292     Br1297   1.931       .  S
C1293      C1294   1.410       .  A
C1294     Br1295   1.930   1_655  S
C1299      C1300   1.408       .  A
C1299      C1304   1.407       .  A
C1299     Br1306   1.929       .  S
C1300      C1301   1.408       .  A
C1301      C1302   1.406       .  A
C1301     Br1308   1.929   1_655  S
C1302      C1303   1.409       .  A
C1302     Br1307   1.928   1_656  S
C1303      C1304   1.409       .  A
C1304     Br1305   1.929       .  S
C1309      C1310   1.411   1_455  A
C1309      C1314   1.406       .  A
C1309     Br1316   1.934       .  S
C1310      C1311   1.411       .  A
C1311      C1312   1.409       .  A
C1311     Br1318   1.929       .  S
C1312      C1313   1.412       .  A
C1312     Br1317   1.932       .  S
C1313      C1314   1.413   1_655  A
C1314     Br1315   1.934       .  S
C1319      C1320   1.405       .  A
C1319      C1324   1.401       .  A
C1319     Br1326   1.931       .  S
C1320      C1321   1.408       .  A
C1321      C1322   1.408       .  A
C1321     Br1328   1.929       .  S
C1322      C1323   1.408       .  A
C1322     Br1327   1.928   1_655  S
C1323      C1324   1.410       .  A
C1324     Br1325   1.932       .  S
C1329      C1330   1.411       .  A
C1329      C1334   1.406       .  A
C1329     Br1336   1.929       .  S
C1330      C1331   1.414       .  A
C1331      C1332   1.409       .  A
C1331     Br1338   1.933       .  S
C1332      C1333   1.412       .  A
C1332     Br1337   1.931       .  S
C1333      C1334   1.413       .  A
C1334     Br1335   1.935       .  S
C1339      C1340   1.408       .  A
C1339      C1344   1.407       .  A
C1339     Br1346   1.921       .  S
C1340      C1341   1.407       .  A
C1341      C1342   1.406       .  A
C1341     Br1348   1.929       .  S
C1342      C1343   1.410       .  A
C1342     Br1347   1.929       .  S
C1343      C1344   1.409       .  A
C1344     Br1345   1.930       .  S
C1349      C1350   1.408       .  A
C1349      C1354   1.407       .  A
C1349     Br1356   1.929       .  S
C1350      C1351   1.410       .  A
C1351      C1352   1.407       .  A
C1351     Br1358   1.928       .  S
C1352      C1353   1.408       .  A
C1352     Br1357   1.929       .  S
C1353      C1354   1.410       .  A
C1354     Br1355   1.928       .  S
C1359      C1360   1.409       .  A
C1359      C1364   1.408       .  A
C1359     Br1366   1.931       .  S
C1360      C1361   1.407       .  A
C1361      C1362   1.409       .  A
C1361     Br1368   1.930       .  S
C1362      C1363   1.416       .  A
C1362     Br1367   1.932       .  S
C1363      C1364   1.415       .  A
C1364     Br1365   1.933       .  S
C1369      C1370   1.408       .  A
C1369      C1374   1.407       .  A
C1369     Br1376   1.929       .  S
C1370      C1371   1.408       .  A
C1371      C1372   1.406       .  A
C1371     Br1378   1.929       .  S
C1372      C1373   1.409       .  A
C1372     Br1377   1.929       .  S
C1373      C1374   1.409       .  A
C1374     Br1375   1.929       .  S
C1379      C1380   1.416       .  A
C1379      C1384   1.404       .  A
C1379     Br1386   1.932       .  S
C1380      C1381   1.415   1_655  A
C1381      C1382   1.410       .  A
C1381     Br1388   1.931       .  S
C1382      C1383   1.410   1_455  A
C1382     Br1387   1.930       .  S
C1383      C1384   1.407       .  A
C1384     Br1385   1.934   1_554  S
C1389      C1390   1.405       .  A
C1389      C1394   1.402       .  A
C1389     Br1396   1.930       .  S
C1390      C1391   1.408       .  A
C1391      C1392   1.408       .  A
C1391     Br1398   1.927       .  S
C1392      C1393   1.409       .  A
C1392     Br1397   1.928       .  S
C1393      C1394   1.410       .  A
C1394     Br1395   1.929       .  S
C1399      C1400   1.405       .  A
C1399      C1404   1.407       .  A
C1399     Br1406   1.931       .  S
C1400      C1401   1.404       .  A
C1401      C1402   1.409       .  A
C1401     Br1408   1.929       .  S
C1402      C1403   1.419       .  A
C1402     Br1407   1.933   1_556  S
C1403      C1404   1.419       .  A
C1404     Br1405   1.934       .  S
C1409      C1410   1.409       .  A
C1409      C1414   1.400       .  A
C1409     Br1416   1.933       .  S
C1410      C1411   1.412       .  A
C1411      C1412   1.411       .  A
C1411     Br1418   1.929       .  S
C1412      C1413   1.413       .  A
C1412     Br1417   1.930       .  S
C1413      C1414   1.411       .  A
C1414     Br1415   1.928   1_455  S
C1419      C1420   1.408       .  A
C1419      C1424   1.406       .  A
C1419     Br1426   1.930       .  S
C1420      C1421   1.407       .  A
C1421      C1422   1.406       .  A
C1421     Br1428   1.929       .  S
C1422      C1423   1.411       .  A
C1422     Br1427   1.930       .  S
C1423      C1424   1.410       .  A
C1424     Br1425   1.930       .  S
C1429      C1430   1.406       .  A
C1429      C1434   1.411       .  A
C1429     Br1436   1.926       .  S
C1430      C1431   1.408       .  A
C1431      C1432   1.404       .  A
C1431     Br1438   1.933       .  S
C1432      C1433   1.417       .  A
C1432     Br1437   1.937       .  S
C1433      C1434   1.416       .  A
C1434     Br1435   1.930       .  S
C1439      C1440   1.417       .  A
C1439      C1444   1.413       .  A
C1439     Br1446   1.930       .  S
C1440      C1441   1.418       .  A
C1441      C1442   1.399       .  A
C1441     Br1448   1.933       .  S
C1442      C1443   1.405       .  A
C1442     Br1447   1.938   1_455  S
C1443      C1444   1.408       .  A
C1444     Br1445   1.929       .  S
C1449      C1450   1.408       .  A
C1449      C1454   1.406       .  A
C1449     Br1456   1.930       .  S
C1450      C1451   1.410       .  A
C1451      C1452   1.407       .  A
C1451     Br1458   1.928       .  S
C1452      C1453   1.408       .  A
C1452     Br1457   1.929       .  S
C1453      C1454   1.409       .  A
C1454     Br1455   1.929       .  S
