geometry optimzed in LAMMPS
_audit_creation_date              2020-11-30 
_audit_creation_method            'lammps2cif' 
_symmetry_space_group_name_H-M    'P1' 
_symmetry_Int_Tables_number       1 
_symmetry_cell_setting            triclinic 
loop_ 
_symmetry_equiv_pos_as_xyz 
  x,y,z 
_cell_length_a                    79.44398997 
_cell_length_b                    30.281679871226103 
_cell_length_c                    26.165973845412484 
_cell_angle_alpha                 89.71752568157427 
_cell_angle_beta                  91.15302395190871 
_cell_angle_gamma                 89.93759553565506 
loop_ 
_atom_site_label 
_atom_site_type_symbol 
_atom_site_fract_x 
_atom_site_fract_y 
_atom_site_fract_z 
_atom_site_charge 
C1          C  0.71239987  0.47796705  0.96239915     0.32000
C2          C  0.71107735  0.47586906  0.06782162     0.32000
C3          C  0.72209245  0.51518664  0.99063353    -0.04200
C4          C  0.69474784  0.48332643  0.98550955    -0.05000
C5          C  0.71910482  0.43600727  0.98900704    -0.04900
C6          C  0.72134757  0.51402323  0.04420684    -0.04200
C7          C  0.69398355  0.48206981  0.03887463    -0.05000
C8          C  0.71841896  0.43486061  0.04202349    -0.04900
C9          C  0.72498869  0.55621409  0.06101246    -0.30300
N10         N  0.72876372  0.58229236  0.02062571     0.16200
C11         C  0.72615285  0.55829513  0.97751711    -0.30300
H12         H  0.72659922  0.57164450  0.93920519     0.18200
C13         C  0.67757144  0.49255269  0.05104233    -0.29300
N14         N  0.66837251  0.49956706  0.00715234     0.14900
C15         C  0.67896788  0.49520559  0.96725651    -0.29300
C16         C  0.72528832  0.39504367  0.05781403    -0.29500
N17         N  0.73020978  0.37223343  0.01594046     0.15500
H18         H  0.72690269  0.38386722  0.09700678     0.18100
C19         C  0.72649552  0.39709494  0.97374817    -0.29600
H20         H  0.72895860  0.38756105  0.93483666     0.18100
H21         H  0.67563808  0.50195674  0.92758258     0.18100
H22         H  0.72401414  0.56791245  0.09987680     0.18200
H23         H  0.67276886  0.49530142  0.08908060     0.18100
C24         C  0.71468348  0.47550277  0.46239348     0.32000
C25         C  0.71317283  0.47253392  0.56807163     0.32000
C26         C  0.72150644  0.51643789  0.49134033    -0.04200
C27         C  0.69710765  0.46948111  0.48516658    -0.05000
C28         C  0.72501522  0.43859137  0.48946271    -0.04900
C29         C  0.72044707  0.51489365  0.54457453    -0.04200
C30         C  0.69623255  0.46733081  0.53841429    -0.05000
C31         C  0.72371807  0.43611125  0.54254437    -0.04900
C32         C  0.72808246  0.55231884  0.56372535    -0.30300
N33         N  0.73418922  0.57626510  0.52412825     0.16200
C34         C  0.73068482  0.55389834  0.48016228    -0.30300
H35         H  0.73517417  0.56337511  0.44287369     0.18200
C36         C  0.67946938  0.46031006  0.54928164    -0.29300
N37         N  0.67021212  0.46092811  0.50500713     0.14900
C38         C  0.68091738  0.46585557  0.46556201    -0.29300
C39         C  0.73258801  0.39913151  0.55829412    -0.29500
N40         N  0.74030020  0.38115760  0.51742714     0.15500
H41         H  0.73304223  0.38564661  0.59646723     0.18100
C42         C  0.73597802  0.40558667  0.47544297    -0.29600
H43         H  0.74055842  0.39988659  0.43722556     0.18100
H44         H  0.67715924  0.46829267  0.42570860     0.18100
H45         H  0.72915398  0.56115518  0.60358233     0.18200
H46         H  0.67419671  0.45500845  0.58661529     0.18100
C47         C  0.80905302  0.97504760  0.08824129     0.32000
C48         C  0.80907972  0.97428337  0.98239918     0.32000
C49         C  0.80060324  0.01510329  0.06067251    -0.04200
C50         C  0.82644488  0.97292742  0.06293088    -0.05000
C51         C  0.79944065  0.93642211  0.06200501    -0.04900
C52         C  0.80104945  0.01474658  0.00741924    -0.04200
C53         C  0.82646071  0.97179651  0.00959556    -0.05000
C54         C  0.80005938  0.93530122  0.00859613    -0.04900
C55         C  0.79321127  0.05254919  0.98971007    -0.30300
N56         N  0.78732312  0.07561978  0.03014538     0.16200
C57         C  0.79134166  0.05215846  0.07336142    -0.30300
H58         H  0.78730924  0.06066993  0.11129569     0.18200
C59         C  0.84300083  0.96682408  0.99563592    -0.29300
N60         N  0.85311075  0.96764017  0.03816309     0.14900
C61         C  0.84305790  0.97088861  0.07959113    -0.29300
C62         C  0.79244434  0.89649749  0.99319411    -0.29500
N63         N  0.78595498  0.87617655  0.03454656     0.15500
H64         H  0.79162286  0.88362355  0.95473178     0.18100
C65         C  0.78990884  0.90033171  0.07669642    -0.29600
H66         H  0.78630555  0.89170009  0.11512266     0.18100
H67         H  0.84743645  0.97253309  0.11876867     0.18100
H68         H  0.79220615  0.06257329  0.95010606     0.18200
H69         H  0.84743279  0.96210128  0.95707659     0.18100
C70         C  0.80853431  0.97677086  0.58854541     0.32000
C71         C  0.80893639  0.97634750  0.48302853     0.32000
C72         C  0.79827467  0.01362052  0.56143541    -0.04200
C73         C  0.82589216  0.98370580  0.56420144    -0.05000
C74         C  0.80204106  0.93491383  0.56218325    -0.04900
C75         C  0.79840942  0.01358847  0.50749943    -0.04200
C76         C  0.82607162  0.98327517  0.51078531    -0.05000
C77         C  0.80225539  0.93460098  0.50910122    -0.04900
C78         C  0.79568730  0.05703412  0.49252373    -0.30300
N79         N  0.79315055  0.08250720  0.53413689     0.16200
C80         C  0.79561597  0.05679264  0.57602619    -0.30300
H81         H  0.79674431  0.06923436  0.61446826     0.18200
C82         C  0.84232707  0.99214731  0.49678682    -0.29300
N83         N  0.85208426  0.99747102  0.53956495     0.14900
C84         C  0.84203962  0.99364797  0.58084773    -0.29300
C85         C  0.79540883  0.89497912  0.49348466    -0.29500
N86         N  0.79104245  0.87140295  0.53559554     0.15500
H87         H  0.79333994  0.88457510  0.45426099     0.18100
C88         C  0.79506896  0.89561377  0.57772774    -0.29600
H89         H  0.79306503  0.88544470  0.61675497     0.18100
H90         H  0.84613651  0.99841616  0.61995408     0.18100
H91         H  0.79630702  0.06954758  0.45369149     0.18200
H92         H  0.84682940  0.99376286  0.45798569     0.18100
O93         O  0.53582787  0.58599448  0.00319763    -0.69800
O94         O  0.48799812  0.59831494  0.00071726    -0.70000
O95         O  0.51046433  0.55724709  0.06167558    -0.69900
O96         O  0.51341233  0.62749823  0.94127416    -0.69900
O97         O  0.51207740  0.56731657  0.89628929    -0.69900
O98         O  0.50725137  0.49856024  0.01530562    -0.69900
O99         O  0.48589286  0.54069433  0.95205975    -0.69800
O100        O  0.53338565  0.52515194  0.96019371    -0.70000
V101        V  0.51186894  0.59124525  0.00081557     1.35200
V102        V  0.50969194  0.53425082  0.95671555     1.35200
C103        C  0.54274940  0.55285985  0.98298230     0.79400
C104        C  0.47875257  0.57098125  0.97679130     0.79500
C105        C  0.50805920  0.51600149  0.05890319     0.79300
C106        C  0.51370962  0.60868654  0.89832807     0.79300
O107        O  0.53596891  0.50668930  0.45328386    -0.69800
O108        O  0.48810634  0.51760795  0.45545472    -0.70000
O109        O  0.51391242  0.54642617  0.51449960    -0.69900
O110        O  0.51010258  0.47824938  0.39444341    -0.69900
O111        O  0.50981080  0.41763096  0.43944109    -0.69900
O112        O  0.51132998  0.48684400  0.56004286    -0.69900
O113        O  0.48667627  0.45574866  0.49745244    -0.69800
O114        O  0.53451857  0.44872363  0.50211516    -0.70000
V115        V  0.51200282  0.51105706  0.45524814     1.35200
V116        V  0.51062241  0.45341568  0.49897026     1.35200
C117        C  0.54344364  0.47641845  0.47848637     0.79400
C118        C  0.47920653  0.48780290  0.47559787     0.79500
C119        C  0.51328552  0.52827751  0.55792996     0.79300
C120        C  0.50921469  0.43667777  0.39645977     0.79300
O121        O  0.98695217  0.00252673  0.99847378    -0.69800
O122        O  0.03456788  0.00351564  0.98117403    -0.70000
O123        O  0.00800652  0.96589848  0.93227194    -0.69900
O124        O  0.01307782  0.04080737  0.04624234    -0.69900
O125        O  0.01547192  0.98331952  0.09601150    -0.69900
O126        O  0.01108647  0.90775987  0.98063994    -0.69900
O127        O  0.03694412  0.94654104  0.03123742    -0.69800
O128        O  0.98947405  0.94409317  0.04641738    -0.70000
V129        V  0.01075018  0.00195500  0.99036480     1.35200
V130        V  0.01318830  0.94653527  0.03766610     1.35200
C131        C  0.98009078  0.97298824  0.02542168     0.79400
C132        C  0.04396745  0.97562633  0.00422712     0.79500
C133        C  0.00851018  0.92440834  0.93676174     0.79300
C134        C  0.01493285  0.02486827  0.09051080     0.79300
O135        O  0.03461155  0.01127411  0.52299824    -0.69800
O136        O  0.98738211  0.01176769  0.53955814    -0.70000
O137        O  0.01372426  0.97542694  0.59044690    -0.69900
O138        O  0.00838016  0.04721192  0.47234541    -0.69900
O139        O  0.00732682  0.98791390  0.42587903    -0.69900
O140        O  0.00995061  0.91625908  0.54497963    -0.69900
O141        O  0.98487380  0.95485953  0.49007910    -0.69800
O142        O  0.03279006  0.94980560  0.48075572    -0.70000
V143        V  0.01097305  0.01014264  0.53056604     1.35200
V144        V  0.00882055  0.95329861  0.48618998     1.35200
C145        C  0.04181647  0.98029745  0.49982151     0.79400
C146        C  0.97794531  0.98451207  0.51642235     0.79500
C147        C  0.01260915  0.93383275  0.58802190     0.79300
C148        C  0.00685291  0.02956221  0.42895475     0.79300
C149        C  0.31052181  0.52457846  0.92695653     0.32000
C150        C  0.30905241  0.52545902  0.03226019     0.32000
C151        C  0.30417173  0.48244933  0.95268643    -0.04200
C152        C  0.32730246  0.53373613  0.95602508    -0.05000
C153        C  0.29919016  0.56071247  0.94990246    -0.04900
C154        C  0.30350643  0.48264364  0.00558784    -0.04200
C155        C  0.32651272  0.53422289  0.00935200    -0.05000
C156        C  0.29834625  0.56120494  0.00376283    -0.04900
C157        C  0.29613101  0.44339101  0.02009237    -0.30300
N158        N  0.29212525  0.41966413  0.97737998     0.16200
C159        C  0.29700045  0.44358624  0.93608627    -0.30300
H160        H  0.29470993  0.43459646  0.89656504     0.18200
C161        C  0.34218026  0.54672701  0.02776152    -0.29300
N162        N  0.35254925  0.55298774  0.98767708     0.14900
C163        C  0.34345999  0.54616273  0.94378270    -0.29300
C164        C  0.29475193  0.60451493  0.01671234    -0.29500
N165        N  0.29262917  0.62959021  0.97390545     0.15500
H166        H  0.29459441  0.61716223  0.05513043     0.18100
C167        C  0.29615694  0.60356614  0.93348952    -0.29600
H168        H  0.29790694  0.61567297  0.89495192     0.18100
H169        H  0.34830303  0.54975518  0.90576136     0.18100
H170        H  0.29361712  0.43340945  0.05891368     0.18200
H171        H  0.34572725  0.55169312  0.06754327     0.18100
C172        C  0.30812970  0.51761790  0.42680934     0.32000
C173        C  0.30943121  0.52021668  0.53282961     0.32000
C174        C  0.29879449  0.48010774  0.45504811    -0.04200
C175        C  0.32567237  0.51360753  0.45232676    -0.05000
C176        C  0.30098716  0.55954911  0.45176448    -0.04900
C177        C  0.29889887  0.48240837  0.50862019    -0.04200
C178        C  0.32640248  0.51541099  0.50556107    -0.05000
C179        C  0.30128984  0.56073327  0.50524738    -0.04900
C180        C  0.29124553  0.44440707  0.52624965    -0.30300
N181        N  0.28794880  0.41772765  0.48587537     0.16200
C182        C  0.29301381  0.43835839  0.44277014    -0.30300
H183        H  0.29320129  0.42288620  0.40563013     0.18200
C184        C  0.34313505  0.51020716  0.52005958    -0.29300
N185        N  0.35244469  0.50496652  0.47731437     0.14900
C186        C  0.34179576  0.50602709  0.43608786    -0.29300
C187        C  0.29199923  0.59759659  0.51840143    -0.29500
N188        N  0.28732290  0.62034161  0.47547016     0.15500
H189        H  0.28809797  0.60649561  0.55628914     0.18100
C190        C  0.29253425  0.59688386  0.43445358    -0.29600
H191        H  0.29029710  0.60607622  0.39486130     0.18100
H192        H  0.34553313  0.50100016  0.39698607     0.18100
H193        H  0.28919155  0.43530432  0.56566279     0.18200
H194        H  0.34814956  0.51072041  0.55878052     0.18100
C195        C  0.21464316  0.02480864  0.03334838     0.32000
C196        C  0.21197310  0.02321007  0.92760471     0.32000
C197        C  0.22460434  0.98782962  0.00626716    -0.04200
C198        C  0.19682106  0.01930709  0.01015044    -0.05000
C199        C  0.22125143  0.06583290  0.00479433    -0.04900
C200        C  0.22269664  0.98608602  0.95302387    -0.04200
C201        C  0.19538119  0.01769936  0.95689105    -0.05000
C202        C  0.21969021  0.06512411  0.95155812    -0.04900
C203        C  0.23105625  0.94869565  0.93722427    -0.30300
N204        N  0.23911166  0.92973572  0.97803468     0.16200
C205        C  0.23560165  0.95416359  0.02003488    -0.30300
H206        H  0.24082885  0.94811864  0.05764515     0.18200
C207        C  0.17879967  0.00683437  0.94556052    -0.29300
N208        N  0.17013994  0.00433547  0.98977403     0.14900
C209        C  0.18106469  0.01161757  0.02941188    -0.29300
C210        C  0.22724031  0.10293030  0.93333006    -0.29500
N211        N  0.23356153  0.12624594  0.97363402     0.15500
H212        H  0.22853992  0.11206193  0.89343395     0.18100
C213        C  0.23026520  0.10340737  0.01718893    -0.29600
H214        H  0.23426874  0.11332169  0.05504974     0.18100
H215        H  0.17785225  0.01030938  0.06940745     0.18100
H216        H  0.23087565  0.93539163  0.89869379     0.18200
H217        H  0.17336155  0.00079055  0.90803322     0.18100
C218        C  0.21189741  0.02303464  0.53373860     0.32000
C219        C  0.20981612  0.02288504  0.42802565     0.32000
C220        C  0.21884139  0.98129822  0.50686915    -0.04200
C221        C  0.19416358  0.02765836  0.50967228    -0.05000
C222        C  0.22181305  0.05949927  0.50613480    -0.04900
C223        C  0.21725020  0.98082184  0.45359813    -0.04200
C224        C  0.19288389  0.02680969  0.45614894    -0.05000
C225        C  0.22048614  0.05972062  0.45294246    -0.04900
C226        C  0.22356581  0.94091458  0.43727352    -0.30300
N227        N  0.22995843  0.91801026  0.47818887     0.16200
C228        C  0.22746891  0.94310661  0.52054322    -0.30300
H229        H  0.23210289  0.93495409  0.55853040     0.18200
C230        C  0.17631718  0.01513224  0.44493251    -0.29300
N231        N  0.16749759  0.01282569  0.48890936     0.14900
C232        C  0.17839837  0.01956796  0.52854185    -0.29300
C233        C  0.22950072  0.09556857  0.43568971    -0.29500
N234        N  0.23652777  0.11659958  0.47664205     0.15500
H235        H  0.23066577  0.10591404  0.39625177     0.18100
C236        C  0.23228710  0.09411895  0.51955317    -0.29600
H237        H  0.23617286  0.10332139  0.55786548     0.18100
H238        H  0.17535231  0.01529248  0.56852164     0.18100
H239        H  0.22333067  0.92944067  0.39820194     0.18200
H240        H  0.17120052  0.00677135  0.40776090     0.18100
C241        C  0.21010250  0.06588711  0.67335904     0.14600
C242        C  0.20961891  0.02664874  0.70199082     0.01600
C243        C  0.20847445  0.98644259  0.67575283     0.16600
C244        C  0.20884365  0.98527232  0.62209985     0.26000
C245        C  0.21151369  0.02415576  0.59298912    -0.40400
C246        C  0.21043259  0.06475300  0.61966885     0.33000
C247        C  0.21015549  0.02737753  0.75907994     0.01600
F248        F  0.20629563  0.94824171  0.70216408    -0.12700
F249        F  0.20846747  0.10353143  0.59412185    -0.13200
C250        C  0.19671464  0.04412969  0.78722154     0.16600
C251        C  0.19739926  0.04396893  0.84105529     0.26000
C252        C  0.21123507  0.02497054  0.86834555    -0.40300
C253        C  0.22548575  0.01378101  0.83932197     0.32900
C254        C  0.22467731  0.01321884  0.78570417     0.14600
F255        F  0.18297042  0.06120462  0.76254918    -0.12700
F256        F  0.24067432  0.00632507  0.86231783    -0.13200
F257        F  0.18505064  0.06544662  0.86592802    -0.15500
F258        F  0.23842957  0.00049153  0.75951925    -0.14000
F259        F  0.21008061  0.10550893  0.69742568    -0.14000
F260        F  0.20504538  0.94649104  0.59900774    -0.15400
C261        C  0.21527718  0.98769747  0.17610493     0.14600
C262        C  0.21298576  0.02762090  0.20218049     0.01600
C263        C  0.21044726  0.06625466  0.17298295     0.16600
C264        C  0.21082211  0.06519632  0.11924608     0.26000
C265        C  0.21464907  0.02581516  0.09272330    -0.40400
C266        C  0.21535637  0.98650687  0.12239684     0.33000
C267        C  0.21221180  0.02813198  0.25948141     0.01600
F268        F  0.20739313  0.10523825  0.19648082    -0.12700
F269        F  0.21442837  0.94632341  0.10002095    -0.13200
C270        C  0.22594495  0.01343707  0.28968249     0.16600
C271        C  0.22514018  0.01280044  0.34329618     0.26000
C272        C  0.21025624  0.02492942  0.36876127    -0.40300
C273        C  0.19708798  0.04342801  0.33817722     0.32900
C274        C  0.19789068  0.04383370  0.28446300     0.14600
F275        F  0.24042774  0.00083079  0.26721582    -0.12700
F276        F  0.18400193  0.06467471  0.35955056    -0.13200
F277        F  0.23929590  0.00179760  0.37036479    -0.15500
F278        F  0.18457493  0.05982865  0.25677204    -0.14000
F279        F  0.21647187  0.94916732  0.20270356    -0.14000
F280        F  0.20620733  0.10234469  0.09340667    -0.15400
C281        C  0.24608369  0.23586490  0.44977489     0.14600
C282        C  0.26011073  0.24308287  0.48217729     0.01600
C283        C  0.26684977  0.20758571  0.51067324     0.16600
C284        C  0.25940402  0.16570368  0.50778656     0.26000
C285        C  0.24515420  0.15851964  0.47602189    -0.40400
C286        C  0.23871030  0.19395793  0.44652512     0.33000
C287        C  0.26769987  0.28767659  0.48599307     0.01600
F288        F  0.28041604  0.21380421  0.54219435    -0.12700
F289        F  0.22481316  0.18853027  0.41621888    -0.13200
C290        C  0.25870495  0.32274532  0.50762893     0.16600
C291        C  0.26562282  0.36529346  0.50920800     0.26000
C292        C  0.28147084  0.37349099  0.48833301    -0.40300
C293        C  0.29059931  0.33826614  0.46771562     0.32900
C294        C  0.28381305  0.29562399  0.46682357     0.14600
F295        F  0.24319221  0.31573692  0.52693325    -0.12700
F296        F  0.30613030  0.34531004  0.44862923    -0.13200
F297        F  0.25662470  0.39888536  0.52933509    -0.15500
F298        F  0.29276081  0.26226872  0.44596475    -0.14000
F299        F  0.23949425  0.26956937  0.42136892    -0.14000
F300        F  0.26614640  0.13205702  0.53589248    -0.15400
C301        C  0.25434536  0.81857283  0.43244942     0.14600
C302        C  0.25344959  0.78979362  0.47460803     0.01600
C303        C  0.24465148  0.80364178  0.51778747     0.16600
C304        C  0.23683285  0.84522574  0.51878910     0.26000
C305        C  0.23792458  0.87469809  0.47692530    -0.40400
C306        C  0.24688205  0.86063624  0.43372667     0.33000
C307        C  0.26212646  0.74597202  0.47430813     0.01600
F308        F  0.24337552  0.77642968  0.55891941    -0.12700
F309        F  0.24899975  0.88800877  0.39317940    -0.13200
C310        C  0.27506859  0.73662729  0.51017815     0.16600
C311        C  0.28331771  0.69565115  0.51028137     0.26000
C312        C  0.27878852  0.66273345  0.47461073    -0.40300
C313        C  0.26585206  0.67216701  0.43852015     0.32900
C314        C  0.25762773  0.71336085  0.43836002     0.14600
F315        F  0.27999393  0.76770552  0.54457662    -0.12700
F316        F  0.26079865  0.64104095  0.40441402    -0.13200
F317        F  0.29612653  0.68865801  0.54447465    -0.15500
F318        F  0.24497464  0.72105589  0.40381038    -0.14000
F319        F  0.26293660  0.80644412  0.39042889    -0.14000
F320        F  0.22780702  0.85592984  0.56041658    -0.15400
C321        C  0.24374323  0.24398156  0.93912792     0.14600
C322        C  0.25790176  0.25198982  0.97071301     0.01600
C323        C  0.26428668  0.21782464  0.00192705     0.16600
C324        C  0.25652063  0.17631383  0.00214066     0.26000
C325        C  0.24214795  0.16822752  0.97118032    -0.40400
C326        C  0.23592970  0.20243444  0.93929241     0.33000
C327        C  0.26617244  0.29583015  0.97119813     0.01600
F328        F  0.27811628  0.22475572  0.03214121    -0.12700
F329        F  0.22192889  0.19611472  0.90967747    -0.13200
C330        C  0.26231697  0.32688989  0.00884346     0.16600
C331        C  0.27072247  0.36756513  0.01083825     0.26000
C332        C  0.28336859  0.37772473  0.97551509    -0.40300
C333        C  0.28710145  0.34631585  0.93764877     0.32900
C334        C  0.27848894  0.30598125  0.93536641     0.14600
F335        F  0.25033711  0.31779955  0.04363624    -0.12700
F336        F  0.29946409  0.35395623  0.90369937    -0.13200
F337        F  0.26613718  0.39735353  0.04654116    -0.15500
F338        F  0.28237875  0.27636494  0.89863680    -0.14000
F339        F  0.23734574  0.27664560  0.90875466    -0.14000
F340        F  0.26325010  0.14372637  0.03191660    -0.15400
C341        C  0.28520731  0.74815931  0.01181441     0.14600
C342        C  0.27468324  0.76333648  0.97154953     0.01600
C343        C  0.27130622  0.73496409  0.93021313     0.16600
C344        C  0.27763457  0.69173933  0.93025461     0.26000
C345        C  0.28760981  0.67569830  0.97163029    -0.40400
C346        C  0.29165220  0.70503955  0.01182545     0.33000
C347        C  0.26639713  0.80752540  0.97413796     0.01600
F348        F  0.26110581  0.74827356  0.89080929    -0.12700
F349        F  0.30200364  0.69246166  0.05110059    -0.13200
C350        C  0.26746928  0.83808038  0.93361167     0.16600
C351        C  0.25876547  0.87839921  0.93513659     0.26000
C352        C  0.24880931  0.88919611  0.97736891    -0.40300
C353        C  0.24805867  0.85887186  0.01830700     0.32900
C354        C  0.25670519  0.81861696  0.01663913     0.14600
F355        F  0.27708098  0.82906017  0.89261395    -0.12700
F356        F  0.23828570  0.86707425  0.05911725    -0.13200
F357        F  0.26031011  0.90712594  0.89554067    -0.15500
F358        F  0.25500177  0.78956663  0.05588144    -0.14000
F359        F  0.28924779  0.77518669  0.05144759    -0.14000
F360        F  0.27316531  0.66493710  0.89087132    -0.15400
C361        C  0.29687099  0.53021391  0.78373069     0.14600
C362        C  0.31113328  0.51412523  0.75887530     0.01600
C363        C  0.32458901  0.49771070  0.78916314     0.16600
C364        C  0.32418074  0.49985572  0.84287105     0.26000
C365        C  0.31072646  0.52084517  0.86793239    -0.40400
C366        C  0.29651609  0.53279281  0.83730168     0.33000
C367        C  0.31190698  0.51549680  0.70162206     0.01600
F368        F  0.33829593  0.48003617  0.76678364    -0.12700
F369        F  0.28186328  0.54505852  0.85891228    -0.13200
C370        C  0.31073897  0.55614147  0.67568447     0.16600
C371        C  0.31117250  0.55829755  0.62206407     0.26000
C372        C  0.31129996  0.51946311  0.59217085    -0.40300
C373        C  0.31478833  0.47944192  0.61878036     0.32900
C374        C  0.31457589  0.47725967  0.67256215     0.14600
F375        F  0.30997297  0.59427904  0.70261947    -0.12700
F376        F  0.31905725  0.44246700  0.59294060    -0.13200
F377        F  0.31351888  0.59849423  0.60054620    -0.15500
F378        F  0.31683123  0.43758587  0.69611839    -0.14000
F379        F  0.28301618  0.54255173  0.75594864    -0.14000
F380        F  0.33676351  0.47990369  0.87014123    -0.15400
C381        C  0.29500277  0.53951922  0.17298986     0.14600
C382        C  0.30822343  0.51920554  0.20072572     0.01600
C383        C  0.32095645  0.49808074  0.17344015     0.16600
C384        C  0.32083229  0.49896551  0.11962151     0.26000
C385        C  0.30834744  0.52269236  0.09139670    -0.40400
C386        C  0.29478751  0.54022168  0.11927110     0.33000
C387        C  0.30821370  0.51854143  0.25796425     0.01600
F388        F  0.33330475  0.47547973  0.19892972    -0.12700
F389        F  0.28064332  0.55528828  0.09516193    -0.13200
C390        C  0.29544994  0.49650425  0.28423888     0.16600
C391        C  0.29477097  0.49790425  0.33785731     0.26000
C392        C  0.30761734  0.51872871  0.36739462    -0.40300
C393        C  0.31949710  0.54411746  0.34024615     0.32900
C394        C  0.32004148  0.54308688  0.28652472     0.14600
F395        F  0.28332548  0.47422351  0.25771487    -0.12700
F396        F  0.33027498  0.57148029  0.36553696    -0.13200
F397        F  0.28061381  0.48252425  0.35972211    -0.15500
F398        F  0.33180725  0.56745005  0.26223046    -0.14000
F399        F  0.28211041  0.55854548  0.19813267    -0.14000
F400        F  0.33276335  0.47547646  0.09513162    -0.15400
C401        C  0.08609153  0.02236138  0.48227988     0.14600
C402        C  0.09590414  0.98539449  0.49621587     0.01600
C403        C  0.08776001  0.94562806  0.50881927     0.16600
C404        C  0.07008738  0.94322406  0.50823902     0.26000
C405        C  0.06034644  0.98066689  0.49555525    -0.40400
C406        C  0.06851691  0.02011229  0.48231337     0.33000
C407        C  0.11457955  0.98912193  0.49780661     0.01600
F408        F  0.09690638  0.90968448  0.52348945    -0.12700
F409        F  0.05942202  0.05654089  0.46900257    -0.13200
C410        C  0.12247371  0.02056786  0.52955048     0.16600
C411        C  0.13986140  0.02764727  0.52733091     0.26000
C412        C  0.14975674  0.00338840  0.49328488    -0.40300
C413        C  0.14194018  0.97066733  0.46302095     0.32900
C414        C  0.12451916  0.96356818  0.46532624     0.14600
F415        F  0.11325426  0.04490224  0.56231723    -0.12700
F416        F  0.15118855  0.94529873  0.43148681    -0.13200
F417        F  0.14691692  0.05958719  0.55697868    -0.15500
F418        F  0.11726670  0.93274482  0.43453205    -0.14000
F419        F  0.09357886  0.06075867  0.46838761    -0.10800
F420        F  0.06250694  0.90508732  0.52257642    -0.15400
C421        C  0.08828355  0.01179467  0.96895784     0.14600
C422        C  0.09835251  0.98248356  0.99792793     0.01600
C423        C  0.09058927  0.95029284  0.02806846     0.16600
C424        C  0.07298349  0.94771431  0.02974105     0.26000
C425        C  0.06272278  0.97727981  0.00088197    -0.40400
C426        C  0.07067333  0.00921416  0.97021091     0.33000
C427        C  0.11695910  0.98650652  0.99769313     0.01600
F428        F  0.10009462  0.92194259  0.05685934    -0.12700
F429        F  0.06146526  0.03833626  0.94163133    -0.13200
C430        C  0.12495829  0.02078224  0.02472636     0.16600
C431        C  0.14246032  0.02594545  0.02303143     0.26000
C432        C  0.15226406  0.99722967  0.99373349    -0.40300
C433        C  0.14425817  0.96255382  0.96715266     0.32900
C434        C  0.12674725  0.95703585  0.96945298     0.14600
F435        F  0.11575294  0.04947379  0.05247840    -0.12700
F436        F  0.15344047  0.93380503  0.93944843    -0.13200
F437        F  0.14979107  0.06008655  0.04841185    -0.15500
F438        F  0.11928487  0.92344069  0.94339784    -0.14000
F439        F  0.09556841  0.04308665  0.93939916    -0.14000
F440        F  0.06606391  0.91665185  0.06044205    -0.15400
C441        C  0.00168545  0.85667909  0.69577971     0.14600
C442        C  0.01243535  0.87301746  0.73461663     0.01600
C443        C  0.02521625  0.90293848  0.72195237     0.16600
C444        C  0.02601262  0.92016993  0.67267588     0.26000
C445        C  0.01421685  0.90732886  0.63505993    -0.40400
C446        C  0.00270781  0.87342107  0.64586094     0.33000
C447        C  0.00797439  0.86941116  0.78894934     0.01600
F448        F  0.03569415  0.91950367  0.75874514    -0.12700
F449        F  0.99141537  0.85976958  0.60965195    -0.13200
C450        C  0.01985802  0.85394762  0.82540630     0.16600
C451        C  0.01898490  0.86766259  0.87637105     0.26000
C452        C  0.00635403  0.89733033  0.89072022    -0.40300
C453        C  0.99337371  0.90820733  0.85569006     0.32900
C454        C  0.99407210  0.89394047  0.80523049     0.14600
F455        F  0.03329347  0.82987308  0.81041062    -0.12700
F456        F  0.98088223  0.93626207  0.86915198    -0.13200
F457        F  0.03158619  0.85656829  0.90983231    -0.15500
F458        F  0.98244132  0.90938500  0.77079732    -0.14000
F459        F  0.98936318  0.82742763  0.70719063    -0.14000
F460        F  0.03762863  0.95173964  0.66253885    -0.15400
C461        C  0.02628487  0.06703737  0.22075613     0.14600
C462        C  0.01191147  0.09243926  0.23096355     0.01600
C463        C  0.00071604  0.10364027  0.19073784     0.16600
C464        C  0.00263546  0.08457181  0.14265718     0.26000
C465        C  0.01561456  0.05386173  0.13504097    -0.40400
C466        C  0.02794242  0.04712361  0.17326198     0.33000
C467        C  0.00601716  0.09180297  0.28387062     0.01600
F468        F  0.98683302  0.12835608  0.19982595    -0.12700
F469        F  0.04086661  0.01862762  0.16586017    -0.13200
C470        C  0.01589853  0.11018458  0.32347172     0.16600
C471        C  0.01507946  0.09268549  0.37298837     0.26000
C472        C  0.00460938  0.05628670  0.38248552    -0.40300
C473        C  0.99324445  0.04197655  0.34440645     0.32900
C474        C  0.99373319  0.06016724  0.29559367     0.14600
F475        F  0.02758849  0.14141657  0.31291831    -0.12700
F476        F  0.98256876  0.00792645  0.35339989    -0.13200
F477        F  0.02583067  0.10781055  0.40987509    -0.15500
F478        F  0.98388869  0.04221173  0.25807665    -0.14000
F479        F  0.03737794  0.05613610  0.25895430    -0.14000
F480        F  0.99069366  0.09182276  0.10568865    -0.15400
C481        C  0.43438227  0.53207131  0.47485086     0.14600
C482        C  0.42486409  0.49303638  0.47036764     0.01600
C483        C  0.43336287  0.45248141  0.46625449     0.16600
C484        C  0.45100250  0.45085404  0.46802717     0.26000
C485        C  0.46053105  0.48984282  0.47315728    -0.40400
C486        C  0.45203279  0.53053359  0.47584087     0.33000
C487        C  0.40612189  0.49468673  0.47101827     0.01600
F488        F  0.42456215  0.41444492  0.45970283    -0.12700
F489        F  0.46080136  0.56873798  0.48126633    -0.13200
C490        C  0.39707518  0.52050704  0.43508898     0.16600
C491        C  0.37951556  0.52374945  0.43716649     0.26000
C492        C  0.37055413  0.50103656  0.47511873    -0.40300
C493        C  0.37959068  0.47456821  0.51052723     0.32900
C494        C  0.39718914  0.47140700  0.50846586     0.14600
F495        F  0.40526176  0.54251022  0.39770262    -0.12700
F496        F  0.37136119  0.45112554  0.54659105    -0.13200
F497        F  0.37131833  0.55026436  0.40287462    -0.15500
F498        F  0.40556094  0.44628024  0.54379509    -0.14000
F499        F  0.42656158  0.57166981  0.47977163    -0.14000
F500        F  0.45878290  0.41116098  0.46345584    -0.15400
C501        C  0.43454221  0.59091520  0.02556014     0.14600
C502        C  0.42453196  0.57186788  0.98670667     0.01600
C503        C  0.43237735  0.55331333  0.94422533     0.16600
C504        C  0.44994107  0.55366538  0.94057389     0.26000
C505        C  0.46006397  0.57304634  0.97919310    -0.40400
C506        C  0.45213479  0.59179901  0.02173416     0.33000
C507        C  0.40590929  0.57057570  0.99036636     0.01600
F508        F  0.42298911  0.53381411  0.90674534    -0.12700
F509        F  0.46141331  0.60956768  0.06060565    -0.13200
C510        C  0.39574513  0.59370301  0.95473696     0.16600
C511        C  0.37818417  0.58946111  0.95514233     0.26000
C512        C  0.37043933  0.56155658  0.99091259    -0.40300
C513        C  0.38065635  0.53973553  0.02783792     0.32900
C514        C  0.39820939  0.54431684  0.02760054     0.14600
F515        F  0.40289146  0.62017304  0.91922137    -0.12700
F516        F  0.37375436  0.51192274  0.06240507    -0.13200
F517        F  0.36874680  0.61272775  0.92058863    -0.15500
F518        F  0.40775027  0.52137755  0.06224086    -0.14000
F519        F  0.42725771  0.60863600  0.06725458    -0.14000
F520        F  0.45702242  0.53501845  0.89909460    -0.15400
C521        C  0.50405601  0.64055568  0.76604678     0.14600
C522        C  0.51936170  0.62751993  0.74470528     0.01600
C523        C  0.53389675  0.62490291  0.77603593     0.16600
C524        C  0.53251220  0.62733653  0.82900631     0.26000
C525        C  0.51662088  0.63240959  0.85066621    -0.40400
C526        C  0.50268616  0.64287736  0.81915476     0.33000
C527        C  0.51899897  0.60394137  0.69554224     0.01600
F528        F  0.54887597  0.61321913  0.75590964    -0.12700
F529        F  0.48727167  0.64834222  0.83971387    -0.13200
C530        C  0.51449231  0.62521604  0.64958093     0.16600
C531        C  0.51267534  0.60078334  0.60449023     0.26000
C532        C  0.51515983  0.55459942  0.60509028    -0.40300
C533        C  0.51973776  0.53361856  0.65137395     0.32900
C534        C  0.52162198  0.55802923  0.69601934     0.14600
F535        F  0.51171174  0.66945191  0.64855721    -0.12700
F536        F  0.52246989  0.48936114  0.65365718    -0.13200
F537        F  0.50807433  0.62217302  0.56066910    -0.15500
F538        F  0.52545875  0.53645082  0.74039942    -0.14000
F539        F  0.48992386  0.64412078  0.73625886    -0.14000
F540        F  0.54611681  0.61724924  0.85914452    -0.15400
C541        C  0.50136122  0.48349201  0.19628769     0.14600
C542        C  0.50306092  0.43736936  0.19426459     0.01600
C543        C  0.50605159  0.41678722  0.14758972     0.16600
C544        C  0.50744870  0.44226147  0.10315737     0.26000
C545        C  0.50611424  0.48876372  0.10527881    -0.40400
C546        C  0.50287770  0.50899747  0.15230663     0.33000
C547        C  0.50359763  0.41281552  0.24273907     0.01600
F548        F  0.50791035  0.37228240  0.14530257    -0.12700
F549        F  0.50125875  0.55351421  0.15604425    -0.13200
C550        C  0.48915781  0.41243174  0.27273919     0.16600
C551        C  0.49086104  0.41241573  0.32589879     0.26000
C552        C  0.50698130  0.41254769  0.34880448    -0.40300
C553        C  0.52114156  0.40514681  0.31893478     0.32900
C554        C  0.51943209  0.40487834  0.26574648     0.14600
F555        F  0.47374485  0.41947029  0.25078750    -0.12700
F556        F  0.53679338  0.40529751  0.34075901    -0.13200
F557        F  0.47705320  0.41957627  0.35451591    -0.15500
F558        F  0.53348196  0.40460779  0.23703624    -0.14000
F559        F  0.49888270  0.50402157  0.24158826    -0.14000
F560        F  0.51059120  0.42146023  0.05849578    -0.15400
C561        C  0.89597753  0.02230942  0.49727514     0.14600
C562        C  0.90560718  0.99864253  0.53355026     0.01600
C563        C  0.89762832  0.97811729  0.57461474     0.16600
C564        C  0.88007592  0.97923700  0.57798811     0.26000
C565        C  0.87021104  0.00138764  0.54037520    -0.40400
C566        C  0.87844910  0.02409015  0.50088453     0.33000
C567        C  0.92400927  0.99512254  0.52839078     0.01600
F568        F  0.90685417  0.95607554  0.61079947    -0.12700
F569        F  0.86954030  0.04803115  0.46568346    -0.13200
C570        C  0.93452990  0.02781680  0.54892251     0.16600
C571        C  0.95199098  0.02445615  0.54474375     0.26000
C572        C  0.95931148  0.98799594  0.51997793    -0.40300
C573        C  0.94858006  0.95561561  0.49844598     0.32900
C574        C  0.93107735  0.95917488  0.50283434     0.14600
F575        F  0.92784307  0.06308703  0.57314177    -0.12700
F576        F  0.95494107  0.92045150  0.47324170    -0.13200
F577        F  0.96166491  0.05733318  0.56461449    -0.15500
F578        F  0.92097866  0.92755801  0.48208721    -0.14000
F579        F  0.90356977  0.04308566  0.45785110    -0.14000
F580        F  0.87277694  0.95669123  0.61660028    -0.15400
C581        C  0.82023990  0.95453590  0.73093602     0.14600
C582        C  0.80687606  0.97447424  0.75670676     0.01600
C583        C  0.79326932  0.99133057  0.72743331     0.16600
C584        C  0.79344594  0.99038706  0.67381195     0.26000
C585        C  0.80768002  0.97472297  0.64755086    -0.40400
C586        C  0.82040868  0.95351036  0.67723962     0.33000
C587        C  0.80698415  0.97640507  0.81392484     0.01600
F588        F  0.77977070  0.00925827  0.75069874    -0.12700
F589        F  0.83274522  0.93013077  0.65457172    -0.13200
C590        C  0.82018824  0.99742447  0.84085159     0.16600
C591        C  0.82056975  0.99836224  0.89459567     0.26000
C592        C  0.80821290  0.97613270  0.92320012    -0.40300
C593        C  0.79379072  0.96121546  0.89559810     0.32900
C594        C  0.79355849  0.95932007  0.84201628     0.14600
F595        F  0.83242317  0.01871268  0.81495079    -0.12700
F596        F  0.77934639  0.95125141  0.91985449    -0.13200
F597        F  0.83233231  0.02399991  0.91811528    -0.15500
F598        F  0.78009059  0.94079401  0.81764451    -0.14000
F599        F  0.83297733  0.93485896  0.75792189    -0.14000
F600        F  0.77926608  0.00315936  0.64799415    -0.15400
C601        C  0.79686737  0.99108983  0.33903555     0.14600
C602        C  0.81050441  0.97126828  0.31449395     0.01600
C603        C  0.82277995  0.94962827  0.34504755     0.16600
C604        C  0.82178429  0.94953615  0.39871945     0.26000
C605        C  0.80905713  0.97342652  0.42382370    -0.40400
C606        C  0.79592801  0.99129952  0.39263847     0.33000
C607        C  0.81142010  0.97212427  0.25717054     0.01600
F608        F  0.83592557  0.92891213  0.32301455    -0.12700
F609        F  0.78152476  0.00636550  0.41337588    -0.13200
C610        C  0.81155511  0.01250022  0.23037866     0.16600
C611        C  0.81158370  0.01363070  0.17659858     0.26000
C612        C  0.81027790  0.97436709  0.14759664    -0.40300
C613        C  0.81249434  0.93416188  0.17495640     0.32900
C614        C  0.81248322  0.93296607  0.22873732     0.14600
F615        F  0.81231888  0.05111113  0.25648204    -0.12700
F616        F  0.81556495  0.89592499  0.15002026    -0.13200
F617        F  0.81434183  0.05306459  0.15357785    -0.15500
F618        F  0.81340033  0.89326576  0.25296793    -0.14000
F619        F  0.78403910  0.00905184  0.31083737    -0.14000
F620        F  0.83313643  0.92499140  0.42595942    -0.15400
C621        C  0.93544363  0.93045273  0.04133549     0.14600
C622        C  0.92594996  0.96974209  0.03896230     0.01600
C623        C  0.93453826  0.01024197  0.03464478     0.16600
C624        C  0.95209542  0.01132118  0.03049777     0.26000
C625        C  0.96154527  0.97198778  0.03180920    -0.40400
C626        C  0.95305267  0.93161259  0.03846406     0.33000
C627        C  0.90714139  0.96859868  0.03899363     0.01600
F628        F  0.92590809  0.04896999  0.03478315    -0.12700
F629        F  0.96173090  0.89296106  0.04012217    -0.13200
C630        C  0.89838498  0.94606194  0.07747528     0.16600
C631        C  0.88070236  0.94528112  0.07700536     0.26000
C632        C  0.87135224  0.96757495  0.03847872    -0.40300
C633        C  0.88017228  0.99019450  0.00012088     0.32900
C634        C  0.89779118  0.99021694  0.00006192     0.14600
F635        F  0.90694080  0.92532152  0.11609495    -0.12700
F636        F  0.87177049  0.01343049  0.96317247    -0.13200
F637        F  0.87274683  0.92191914  0.11370223    -0.15500
F638        F  0.90573953  0.01106554  0.96133177    -0.14000
F639        F  0.92764409  0.89068817  0.04442165    -0.14000
F640        F  0.95988004  0.05101706  0.02608957    -0.15400
C641        C  0.77080736  0.18726321  0.56852863     0.14600
C642        C  0.77591523  0.21607324  0.52962997     0.01600
C643        C  0.78771265  0.20139342  0.49419363     0.16600
C644        C  0.79395828  0.15813303  0.49673703     0.26000
C645        C  0.78828631  0.12849915  0.53436583    -0.40400
C646        C  0.77686201  0.14394174  0.57081811     0.33000
C647        C  0.76811980  0.26041321  0.52454530     0.01600
F648        F  0.79313342  0.22900302  0.45696087    -0.12700
F649        F  0.77078768  0.11644130  0.60715869    -0.13200
C650        C  0.76943107  0.29103347  0.56454910     0.16600
C651        C  0.76083078  0.33135869  0.56141733     0.26000
C652        C  0.75046753  0.34152795  0.51851743    -0.40300
C653        C  0.74958986  0.31116301  0.47787182     0.32900
C654        C  0.75838927  0.27116006  0.48082688     0.14600
F655        F  0.77898581  0.28169743  0.60685569    -0.12700
F656        F  0.73949227  0.31891736  0.43636681    -0.13200
F657        F  0.76273249  0.36051945  0.60032054    -0.15500
F658        F  0.75671236  0.24184092  0.44196110    -0.14000
F659        F  0.75926560  0.20043088  0.60290173    -0.14000
F660        F  0.80565736  0.14550256  0.46268444    -0.15400
C661        C  0.76170122  0.66941400  0.57223318     0.14600
C662        C  0.75902266  0.70132250  0.53381068     0.01600
C663        C  0.74803745  0.69189204  0.49272744     0.16600
C664        C  0.73983562  0.65110519  0.48982998     0.26000
C665        C  0.74265580  0.61847205  0.52769171    -0.40400
C666        C  0.75368863  0.62820224  0.56910700     0.33000
C667        C  0.76770561  0.74452376  0.53594906     0.01600
F668        F  0.74506209  0.72264567  0.45569379    -0.12700
F669        F  0.75712002  0.59750650  0.60581734    -0.13200
C670        C  0.78107991  0.75338751  0.50316894     0.16600
C671        C  0.78876281  0.79499411  0.50305515     0.26000
C672        C  0.78315852  0.82851913  0.53570444    -0.40300
C673        C  0.76973400  0.81948009  0.56853547     0.32900
C674        C  0.76211732  0.77777122  0.56874734     0.14600
F675        F  0.78671935  0.72156222  0.47138097    -0.12700
F676        F  0.76357714  0.85156386  0.59902355    -0.13200
F677        F  0.80190149  0.80226743  0.47176342    -0.15500
F678        F  0.74897636  0.77015001  0.59996245    -0.14000
F679        F  0.77230941  0.67795227  0.61230144    -0.14000
F680        F  0.72872421  0.64410578  0.45066334    -0.15400
C681        C  0.62522116  0.49184494  0.52894545     0.14600
C682        C  0.61648946  0.46667914  0.49204287     0.01600
C683        C  0.62569537  0.43909984  0.45966010     0.16600
C684        C  0.64332520  0.43678727  0.46412865     0.26000
C685        C  0.65205411  0.46194174  0.50115613    -0.40400
C686        C  0.64279702  0.48951301  0.53346344     0.33000
C687        C  0.59778519  0.46888572  0.48799351     0.01600
F688        F  0.61756055  0.41375614  0.42437993    -0.12700
F689        F  0.65084518  0.51548134  0.56828467    -0.13200
C690        C  0.58968803  0.48531508  0.44351707     0.16600
C691        C  0.57204419  0.48810887  0.44034721     0.26000
C692        C  0.56214799  0.47377908  0.48132808    -0.40300
C693        C  0.57032180  0.45724021  0.52573975     0.32900
C694        C  0.58793209  0.45514416  0.52913543     0.14600
F695        F  0.59890547  0.49940308  0.40347140    -0.12700
F696        F  0.56127193  0.44416840  0.56659497    -0.13200
F697        F  0.56464551  0.50411532  0.39684353    -0.15500
F698        F  0.59540118  0.43933807  0.57263775    -0.14000
F699        F  0.61671993  0.51952748  0.55992651    -0.14000
F700        F  0.65185418  0.40922864  0.43311420    -0.15400
C701        C  0.76124261  0.17213568  0.98112372     0.14600
C702        C  0.76296435  0.20228825  0.02141208     0.01600
C703        C  0.77264437  0.19033914  0.06475739     0.16600
C704        C  0.78066605  0.14907442  0.06764727     0.26000
C705        C  0.77882107  0.11815925  0.02759134    -0.40400
C706        C  0.76884243  0.13033142  0.98439028     0.33000
C707        C  0.75435711  0.24586887  0.01886446     0.01600
F708        F  0.77455641  0.21910258  0.10408776    -0.12700
F709        F  0.76596602  0.10146098  0.94573419    -0.13200
C710        C  0.73985027  0.25334137  0.04741436     0.16600
C711        C  0.73186994  0.29468479  0.04617694     0.26000
C712        C  0.73825105  0.32939583  0.01632024    -0.40300
C713        C  0.75267179  0.32165032  0.98716220     0.32900
C714        C  0.76065607  0.28024906  0.98847020     0.14600
F715        F  0.73331861  0.22030216  0.07609664    -0.12700
F716        F  0.75933996  0.35463068  0.95871214    -0.13200
F717        F  0.71764498  0.30054979  0.07318633    -0.15500
F718        F  0.77474113  0.27393487  0.96087546    -0.14000
F719        F  0.75189853  0.18292980  0.93886915    -0.14000
F720        F  0.79065017  0.14017841  0.10909682    -0.15400
C721        C  0.77566958  0.75693344  0.01318709     0.14600
C722        C  0.75867311  0.75523131  0.02698174     0.01600
C723        C  0.75070907  0.79405809  0.04325689     0.16600
C724        C  0.75976833  0.83378532  0.04669843     0.26000
C725        C  0.77679207  0.83526795  0.03317932    -0.40400
C726        C  0.78460478  0.79668770  0.01587827     0.33000
C727        C  0.74976559  0.71218956  0.02713074     0.01600
F728        F  0.73428275  0.79326779  0.05654905    -0.12700
F729        F  0.80101320  0.79752050  0.00246379    -0.13200
C730        C  0.75437453  0.68004934  0.06357430     0.16600
C731        C  0.74720234  0.63792651  0.06195507     0.26000
C732        C  0.73518974  0.62690162  0.02373721    -0.40300
C733        C  0.73028658  0.65956675  0.98778584     0.32900
C734        C  0.73749991  0.70191206  0.98958937     0.14600
F735        F  0.76612307  0.68934889  0.10035881    -0.12700
F736        F  0.71846502  0.65065706  0.95114445    -0.13200
F737        F  0.75264497  0.60721291  0.09644590    -0.15500
F738        F  0.73286630  0.73248625  0.95387278    -0.14000
F739        F  0.78359624  0.71991433  0.99712543    -0.14000
F740        F  0.75190059  0.87104027  0.06221339    -0.15400
C741        C  0.70165307  0.45042864  0.82106974     0.14600
C742        C  0.71442427  0.47221122  0.79432516     0.01600
C743        C  0.72734770  0.49289777  0.82292546     0.16600
C744        C  0.72715255  0.49320169  0.87658582     0.26000
C745        C  0.71335057  0.47576127  0.90347558    -0.40400
C746        C  0.70126533  0.45154587  0.87472680     0.33000
C747        C  0.71427487  0.47292012  0.73692900     0.01600
F748        F  0.74021126  0.51334058  0.79899571    -0.12700
F749        F  0.68929031  0.42753756  0.89850059    -0.13200
C750        C  0.70012808  0.48877914  0.70931232     0.16600
C751        C  0.69994300  0.49033518  0.65558922     0.26000
C752        C  0.71346364  0.47316462  0.62739244    -0.40300
C753        C  0.72837015  0.46266928  0.65565423     0.32900
C754        C  0.72852850  0.46063072  0.70929144     0.14600
F755        F  0.68671798  0.50504590  0.73452988    -0.12700
F756        F  0.74323657  0.45713972  0.63188084    -0.13200
F757        F  0.68724496  0.51286230  0.63199100    -0.15500
F758        F  0.74275423  0.44671242  0.73411741    -0.14000
F759        F  0.68969713  0.42701892  0.79518747    -0.14000
F760        F  0.74106954  0.50821644  0.90176116    -0.15400
C761        C  0.69835639  0.45254290  0.20822076     0.14600
C762        C  0.71167700  0.47188149  0.23641465     0.01600
C763        C  0.72542619  0.48856044  0.20967677     0.16600
C764        C  0.72557178  0.48778024  0.15606068     0.26000
C765        C  0.71137430  0.47321136  0.12704856    -0.40400
C766        C  0.69835169  0.45241069  0.15434372     0.33000
C767        C  0.71180830  0.47286563  0.29364994     0.01600
F768        F  0.73908411  0.50430235  0.23572700    -0.12700
F769        F  0.68596736  0.43001599  0.12925762    -0.13200
C770        C  0.71227972  0.43363248  0.32235760     0.16600
C771        C  0.71284676  0.43468186  0.37605254     0.26000
C772        C  0.71410916  0.47514553  0.40304301    -0.40300
C773        C  0.71186521  0.51429431  0.37375986     0.32900
C774        C  0.71123670  0.51316779  0.31996503     0.14600
F775        F  0.71211966  0.39399611  0.29832868    -0.12700
F776        F  0.70878757  0.55344420  0.39661485    -0.13200
F777        F  0.71115962  0.39579283  0.40133257    -0.15500
F778        F  0.70934256  0.55156668  0.29345114    -0.14000
F779        F  0.68529564  0.43372739  0.23289748    -0.14000
F780        F  0.74006972  0.49934249  0.13298135    -0.15400
C781        C  0.58546578  0.49620801  0.99054692     0.14600
C782        C  0.59660038  0.53224749  0.99300393     0.01600
C783        C  0.58991091  0.57531066  0.99215226     0.16600
C784        C  0.57243347  0.58218286  0.98907763     0.26000
C785        C  0.56128814  0.54607131  0.98637021    -0.40400
C786        C  0.56802849  0.50301407  0.98710637     0.33000
C787        C  0.61515023  0.52477731  0.99625796     0.01600
F788        F  0.60034825  0.61078074  0.99312074    -0.12700
F789        F  0.55770218  0.46731101  0.98596474    -0.13200
C790        C  0.62333146  0.50118881  0.95787395     0.16600
C791        C  0.64069315  0.49306462  0.96138436     0.26000
C792        C  0.65044073  0.50892051  0.00318609    -0.40300
C793        C  0.64217659  0.53314338  0.04130236     0.32900
C794        C  0.62474012  0.54061823  0.03800808     0.14600
F795        F  0.61447328  0.48605795  0.91663916    -0.12700
F796        F  0.65094235  0.55045997  0.08143029    -0.13200
F797        F  0.64780058  0.46838365  0.92443066    -0.15500
F798        F  0.61713653  0.56269582  0.07625619    -0.14000
F799        F  0.59148089  0.45423560  0.99255936    -0.14000
F800        F  0.56645159  0.62419132  0.98732167    -0.15400
loop_ 
_geom_bond_atom_site_label_1 
_geom_bond_atom_site_label_2 
_geom_bond_distance 
_geom_bond_site_symmetry_2 
_ccdc_geom_bond_type 
C1            C3   1.548       .  S
C1            C5   1.536       .  S
C1            C4   1.547       .  S
C1          C745   1.547       .  S
C2            C6   1.548       .  S
C2            C8   1.536       .  S
C2            C7   1.552       .  S
C2          C765   1.551       .  S
C3           C11   1.388       .  A
C3            C6   1.405   1_556  A
C4           C15   1.379       .  A
C4            C7   1.399   1_556  A
C5           C19   1.380       .  A
C5            C8   1.390   1_556  A
C6            C9   1.382       .  A
C7           C13   1.385       .  A
C8           C16   1.381       .  A
C9           N10   1.355       .  A
C9           H22   1.083       .  S
N10          C11   1.357   1_554  A
N10         C732   1.447       .  S
C11          H12   1.080       .  S
C13          N14   1.364       .  A
C13          H23   1.077       .  S
N14          C15   1.361   1_554  A
N14         C792   1.454       .  S
C15          H21   1.085       .  S
C16          N17   1.362       .  A
C16          H18   1.083       .  S
N17          C19   1.360   1_554  A
N17         C712   1.445       .  S
C19          H20   1.081       .  S
C24          C26   1.549       .  S
C24          C28   1.546       .  S
C24          C27   1.540       .  S
C24         C772   1.553       .  S
C25          C29   1.538       .  S
C25          C31   1.547       .  S
C25          C30   1.548       .  S
C25         C752   1.552       .  S
C26          C34   1.382       .  A
C26          C29   1.398       .  A
C27          C38   1.380       .  A
C27          C30   1.398       .  A
C28          C42   1.381       .  A
C28          C31   1.396       .  A
C29          C32   1.378       .  A
C30          C36   1.384       .  A
C31          C39   1.379       .  A
C32          N33   1.360       .  A
C32          H45   1.080       .  S
N33          C34   1.362       .  A
N33         C665   1.447       .  S
C34          H35   1.083       .  S
C36          N37   1.360       .  A
C36          H46   1.082       .  S
N37          C38   1.358       .  A
N37         C685   1.444       .  S
C38          H44   1.081       .  S
C39          N40   1.359       .  A
C39          H41   1.077       .  S
N40          C42   1.359       .  A
N40         C652   1.446       .  S
C42          H43   1.086       .  S
C47          C49   1.553   1_565  S
C47          C51   1.553       .  S
C47          C50   1.546       .  S
C47         C612   1.554       .  S
C48          C52   1.536   1_566  S
C48          C54   1.546   1_556  S
C48          C53   1.542   1_556  S
C48         C592   1.550       .  S
C49          C57   1.387       .  A
C49          C52   1.395       .  A
C50          C61   1.383       .  A
C50          C53   1.396       .  A
C51          C65   1.387       .  A
C51          C54   1.400       .  A
C52          C55   1.376   1_554  A
C53          C59   1.379   1_554  A
C54          C62   1.380   1_554  A
C55          N56   1.361   1_556  A
C55          H68   1.080       .  S
N56          C57   1.365       .  A
N56         C705   1.454       .  S
C57          H58   1.081       .  S
C59          N60   1.360   1_556  A
C59          H69   1.085       .  S
N60          C61   1.363       .  A
N60         C632   1.449       .  S
C61          H67   1.077       .  S
C62          N63   1.353   1_556  A
C62          H64   1.082       .  S
N63          C65   1.358       .  A
N63         C725   1.438       .  S
C65          H66   1.082       .  S
C70          C72   1.543   1_565  S
C70          C74   1.531       .  S
C70          C73   1.545       .  S
C70         C585   1.548       .  S
C71          C75   1.552   1_565  S
C71          C77   1.534       .  S
C71          C76   1.545       .  S
C71         C605   1.552       .  S
C72          C80   1.381       .  A
C72          C75   1.412       .  A
C73          C84   1.380       .  A
C73          C76   1.398       .  A
C74          C88   1.376       .  A
C74          C77   1.389       .  A
C75          C78   1.386       .  A
C76          C82   1.376       .  A
C77          C85   1.378       .  A
C78          N79   1.356       .  A
C78          H91   1.085       .  S
N79          C80   1.352       .  A
N79         C645   1.445       .  S
C80          H81   1.078       .  S
C82          N83   1.359       .  A
C82          H92   1.084       .  S
N83          C84   1.360       .  A
N83         C565   1.445   1_565  S
C84          H90   1.078       .  S
C85          N86   1.361       .  A
C85          H87   1.084       .  S
N86          C88   1.360       .  A
N86         C672   1.442       .  S
C88          H89   1.080       .  S
O93         V101   1.910       .  S
O93         C103   1.267   1_554  A
O94         V101   1.908       .  S
O94         C104   1.267   1_554  A
O95         V101   1.897       .  S
O95         C105   1.266       .  A
O96         V101   1.907   1_556  S
O96         C106   1.263       .  A
O97         V102   1.880       .  S
O97         C106   1.261       .  A
O98         V102   1.885   1_554  S
O98         C105   1.260       .  A
O99         V102   1.902       .  S
O99         C104   1.265       .  A
O100        V102   1.902       .  S
O100        C103   1.265       .  A
V101        V102   2.086   1_554  T
C103        C785   1.488       .  S
C104        C505   1.489       .  S
C105        C545   1.475       .  S
C106        C525   1.459       .  S
O107        V115   1.910       .  S
O107        C117   1.267       .  A
O108        V115   1.909       .  S
O108        C118   1.266       .  A
O109        V115   1.892       .  S
O109        C119   1.262       .  A
O110        V115   1.883       .  S
O110        C120   1.262       .  A
O111        V116   1.902       .  S
O111        C120   1.261       .  A
O112        V116   1.896       .  S
O112        C119   1.266       .  A
O113        V116   1.903       .  S
O113        C118   1.265       .  A
O114        V116   1.904       .  S
O114        C117   1.266       .  A
V115        V116   2.086       .  T
C117        C692   1.488       .  S
C118        C485   1.485       .  S
C119        C532   1.477       .  S
C120        C552   1.456       .  S
O121        V129   1.907   1_655  S
O121        C131   1.267   1_546  A
O122        V129   1.913       .  S
O122        C132   1.269   1_546  A
O123        V129   1.885   1_565  S
O123        C133   1.262       .  A
O124        V129   1.887   1_554  S
O124        C134   1.259       .  A
O125        V130   1.900       .  S
O125        C134   1.266   1_565  A
O126        V130   1.908   1_556  S
O126        C133   1.264       .  A
O127        V130   1.898       .  S
O127        C132   1.264       .  A
O128        V130   1.904   1_655  S
O128        C131   1.265       .  A
V129        V130   2.087   1_546  T
C131        C625   1.486       .  S
C132        C425   1.495       .  S
C133        C452   1.468       .  S
C134        C465   1.463       .  S
O135        V143   1.893       .  S
O135        C145   1.262   1_545  A
O136        V143   1.894   1_655  S
O136        C146   1.264   1_545  A
O137        V143   1.891   1_565  S
O137        C147   1.265       .  A
O138        V143   1.896       .  S
O138        C148   1.261       .  A
O139        V144   1.892       .  S
O139        C148   1.265   1_565  A
O140        V144   1.900       .  S
O140        C147   1.262       .  A
O141        V144   1.908   1_655  S
O141        C146   1.267       .  A
O142        V144   1.915       .  S
O142        C145   1.268       .  A
V143        V144   2.086   1_545  T
C145        C405   1.479       .  S
C146        C572   1.489       .  S
C147        C445   1.469       .  S
C148        C472   1.465       .  S
C149        C151   1.530       .  S
C149        C153   1.547       .  S
C149        C152   1.547       .  S
C149        C365   1.550       .  S
C150        C154   1.536       .  S
C150        C156   1.554       .  S
C150        C155   1.545       .  S
C150        C385   1.551       .  S
C151        C159   1.376       .  A
C151        C154   1.386   1_556  A
C152        C163   1.381       .  A
C152        C155   1.398   1_556  A
C153        C167   1.384       .  A
C153        C156   1.412   1_556  A
C154        C157   1.381       .  A
C155        C161   1.380       .  A
C156        C164   1.387       .  A
C157        N158   1.364   1_554  A
C157        H170   1.081       .  S
N158        C159   1.361       .  A
N158        C332   1.449       .  S
C159        H160   1.083       .  S
C161        N162   1.359   1_554  A
C161        H171   1.084       .  S
N162        C163   1.361       .  A
N162        C512   1.446       .  S
C163        H169   1.079       .  S
C164        N165   1.358   1_554  A
C164        H166   1.078       .  S
N165        C167   1.356       .  A
N165        C345   1.452       .  S
C167        H168   1.083       .  S
C172        C174   1.550       .  S
C172        C176   1.543       .  S
C172        C175   1.538       .  S
C172        C392   1.555       .  S
C173        C177   1.549       .  S
C173        C179   1.554       .  S
C173        C178   1.545       .  S
C173        C372   1.557       .  S
C174        C182   1.383       .  A
C174        C177   1.404       .  A
C175        C186   1.377       .  A
C175        C178   1.394       .  A
C176        C190   1.384       .  A
C176        C179   1.400       .  A
C177        C180   1.384       .  A
C178        C184   1.384       .  A
C179        C187   1.386       .  A
C180        N181   1.355       .  A
C180        H193   1.082       .  S
N181        C182   1.355       .  A
N181        C292   1.437       .  S
C182        H183   1.081       .  S
C184        N185   1.363       .  A
C184        H194   1.081       .  S
N185        C186   1.358       .  A
N185        C492   1.446       .  S
C186        H192   1.082       .  S
C187        N188   1.360       .  A
C187        H189   1.080       .  S
N188        C190   1.361       .  A
N188        C312   1.451       .  S
C190        H191   1.083       .  S
C195        C197   1.553   1_545  S
C195        C199   1.544       .  S
C195        C198   1.539       .  S
C195        C265   1.554       .  S
C196        C200   1.549   1_545  S
C196        C202   1.541       .  S
C196        C201   1.547       .  S
C196        C252   1.551       .  S
C197        C205   1.384       .  A
C197        C200   1.400   1_554  A
C198        C209   1.378       .  A
C198        C201   1.397   1_554  A
C199        C213   1.382       .  A
C199        C202   1.396   1_554  A
C200        C203   1.381       .  A
C201        C207   1.385       .  A
C202        C210   1.380       .  A
C203        N204   1.358       .  A
C203        H216   1.087       .  S
N204        C205   1.361   1_556  A
N204        C352   1.449       .  S
C205        H206   1.075       .  S
C207        N208   1.360       .  A
C207        H217   1.081       .  S
N208        C209   1.358   1_556  A
N208        C432   1.442   1_545  S
C209        H215   1.083       .  S
C210        N211   1.360       .  A
C210        H212   1.086       .  S
N211        C213   1.360   1_556  A
N211        C325   1.445       .  S
C213        H214   1.079       .  S
C218        C220   1.555   1_545  S
C218        C222   1.542       .  S
C218        C221   1.538       .  S
C218        C245   1.552       .  S
C219        C223   1.547   1_545  S
C219        C225   1.541       .  S
C219        C224   1.551       .  S
C219        C272   1.553       .  S
C220        C228   1.386       .  A
C220        C223   1.397       .  A
C221        C232   1.377       .  A
C221        C224   1.402       .  A
C222        C236   1.381       .  A
C222        C225   1.394       .  A
C223        C226   1.381       .  A
C224        C230   1.389       .  A
C225        C233   1.380       .  A
C226        N227   1.362       .  A
C226        H239   1.081       .  S
N227        C228   1.364       .  A
N227        C305   1.456       .  S
C228        H229   1.080       .  S
C230        N231   1.361       .  A
C230        H240   1.078       .  S
N231        C232   1.354       .  A
N231        C412   1.445       .  S
C232        H238   1.086       .  S
C233        N234   1.360       .  A
C233        H235   1.083       .  S
N234        C236   1.359       .  A
N234        C285   1.443       .  S
C236        H237   1.081       .  S
C241        C242   1.403       .  A
C241        C246   1.406       .  A
C241        F259   1.358       .  S
C242        C243   1.403   1_545  A
C242        C247   1.494       .  S
C243        C244   1.405       .  A
C243        F248   1.358       .  S
C244        C245   1.418   1_565  A
C244        F260   1.355       .  S
C245        C246   1.420       .  A
C246        F249   1.356       .  S
C247        C250   1.405       .  A
C247        C254   1.401       .  A
C250        C251   1.409       .  A
C250        F255   1.358       .  S
C251        C252   1.418       .  A
C251        F257   1.356       .  S
C252        C253   1.418       .  A
C253        C254   1.403       .  A
C253        F256   1.356       .  S
C254        F258   1.358       .  S
C261        C262   1.405   1_565  A
C261        C266   1.406       .  A
C261        F279   1.358       .  S
C262        C263   1.406       .  A
C262        C267   1.502       .  S
C263        C264   1.408       .  A
C263        F268   1.358       .  S
C264        C265   1.418       .  A
C264        F280   1.356       .  S
C265        C266   1.418   1_545  A
C266        F269   1.354       .  S
C267        C270   1.405       .  A
C267        C274   1.407       .  A
C270        C271   1.406       .  A
C270        F275   1.358       .  S
C271        C272   1.418       .  A
C271        F277   1.357       .  S
C272        C273   1.417       .  A
C273        C274   1.408       .  A
C273        F276   1.354       .  S
C274        F278   1.358       .  S
C281        C282   1.405       .  A
C281        C286   1.401       .  A
C281        F299   1.358       .  S
C282        C283   1.405       .  A
C282        C287   1.482       .  S
C283        C284   1.402       .  A
C283        F288   1.358       .  S
C284        C285   1.409       .  A
C284        F300   1.357       .  S
C285        C286   1.409       .  A
C286        F289   1.357       .  S
C287        C290   1.407       .  A
C287        C294   1.405       .  A
C290        C291   1.402       .  A
C290        F295   1.358       .  S
C291        C292   1.404       .  A
C291        F297   1.357       .  S
C292        C293   1.405       .  A
C293        C294   1.400       .  A
C293        F296   1.357       .  S
C294        F298   1.358       .  S
C301        C302   1.405       .  A
C301        C306   1.405       .  A
C301        F319   1.358       .  S
C302        C303   1.406       .  A
C302        C307   1.495       .  S
C303        C304   1.404       .  A
C303        F308   1.358       .  S
C304        C305   1.414       .  A
C304        F320   1.356       .  S
C305        C306   1.415       .  A
C306        F309   1.356       .  S
C307        C310   1.406       .  A
C307        C314   1.409       .  A
C310        C311   1.403       .  A
C310        F315   1.358       .  S
C311        C312   1.411       .  A
C311        F317   1.357       .  S
C312        C313   1.410       .  A
C313        C314   1.407       .  A
C313        F316   1.357       .  S
C314        F318   1.358       .  S
C321        C322   1.404       .  A
C321        C326   1.404       .  A
C321        F339   1.358       .  S
C322        C323   1.403   1_556  A
C322        C327   1.482       .  S
C323        C324   1.401       .  A
C323        F328   1.358       .  S
C324        C325   1.409   1_554  A
C324        F340   1.357       .  S
C325        C326   1.410       .  A
C326        F329   1.357       .  S
C327        C330   1.403   1_556  A
C327        C334   1.402       .  A
C330        C331   1.402       .  A
C330        F335   1.358       .  S
C331        C332   1.412   1_554  A
C331        F337   1.357       .  S
C332        C333   1.412       .  A
C333        C334   1.402       .  A
C333        F336   1.357       .  S
C334        F338   1.358       .  S
C341        C342   1.407   1_554  A
C341        C346   1.402       .  A
C341        F359   1.358       .  S
C342        C343   1.406       .  A
C342        C347   1.493       .  S
C343        C344   1.402       .  A
C343        F348   1.358       .  S
C344        C345   1.413       .  A
C344        F360   1.357       .  S
C345        C346   1.412   1_556  A
C346        F349   1.356       .  S
C347        C350   1.408       .  A
C347        C354   1.407   1_556  A
C350        C351   1.404       .  A
C350        F355   1.358       .  S
C351        C352   1.411       .  A
C351        F357   1.357       .  S
C352        C353   1.410   1_556  A
C353        C354   1.400       .  A
C353        F356   1.357       .  S
C354        F358   1.358       .  S
C361        C362   1.406       .  A
C361        C366   1.405       .  A
C361        F379   1.358       .  S
C362        C363   1.407       .  A
C362        C367   1.501       .  S
C363        C364   1.408       .  A
C363        F368   1.357       .  S
C364        C365   1.417       .  A
C364        F380   1.356       .  S
C365        C366   1.417       .  A
C366        F369   1.357       .  S
C367        C370   1.405       .  A
C367        C374   1.407       .  A
C370        C371   1.405       .  A
C370        F375   1.358       .  S
C371        C372   1.416       .  A
C371        F377   1.353       .  S
C372        C373   1.419       .  A
C373        C374   1.409       .  A
C373        F376   1.357       .  S
C374        F378   1.358       .  S
C381        C382   1.404       .  A
C381        C386   1.405       .  A
C381        F399   1.358       .  S
C382        C383   1.405       .  A
C382        C387   1.498       .  S
C383        C384   1.408       .  A
C383        F388   1.358       .  S
C384        C385   1.417       .  A
C384        F400   1.357       .  S
C385        C386   1.417       .  A
C386        F389   1.355       .  S
C387        C390   1.404       .  A
C387        C394   1.404       .  A
C390        C391   1.406       .  A
C390        F395   1.358       .  S
C391        C392   1.418       .  A
C391        F397   1.354       .  S
C392        C393   1.418       .  A
C393        C394   1.408       .  A
C393        F396   1.357       .  S
C394        F398   1.358       .  S
C401        C402   1.406   1_545  A
C401        C406   1.398       .  A
C401        F419   1.358       .  S
C402        C403   1.408       .  A
C402        C407   1.488       .  S
C403        C404   1.406       .  A
C403        F408   1.358       .  S
C404        C405   1.407       .  A
C404        F420   1.358       .  S
C405        C406   1.405   1_565  A
C406        F409   1.358       .  S
C407        C410   1.406   1_565  A
C407        C414   1.406       .  A
C410        C411   1.400       .  A
C410        F415   1.358       .  S
C411        C412   1.409       .  A
C411        F417   1.357       .  S
C412        C413   1.408   1_545  A
C413        C414   1.403       .  A
C413        F416   1.357       .  S
C414        F418   1.357       .  S
C421        C422   1.403   1_545  A
C421        C426   1.402       .  A
C421        F439   1.358       .  S
C422        C423   1.402   1_556  A
C422        C427   1.483       .  S
C423        C424   1.402       .  A
C423        F428   1.358       .  S
C424        C425   1.415       .  A
C424        F440   1.358       .  S
C425        C426   1.411   1_564  A
C426        F429   1.357       .  S
C427        C430   1.404   1_566  A
C427        C434   1.405       .  A
C430        C431   1.401       .  A
C430        F435   1.358       .  S
C431        C432   1.407   1_544  A
C431        F437   1.357       .  S
C432        C433   1.408       .  A
C433        C434   1.404       .  A
C433        F436   1.357       .  S
C434        F438   1.358       .  S
C441        C442   1.406       .  A
C441        C446   1.403       .  A
C441        F459   1.358   1_455  S
C442        C443   1.405       .  A
C442        C447   1.476       .  S
C443        C444   1.391       .  A
C443        F448   1.358       .  S
C444        C445   1.402       .  A
C444        F460   1.358       .  S
C445        C446   1.407       .  A
C446        F449   1.358   1_455  S
C447        C450   1.407       .  A
C447        C454   1.405   1_455  A
C450        C451   1.402       .  A
C450        F455   1.357       .  S
C451        C452   1.404       .  A
C451        F457   1.357       .  S
C452        C453   1.404   1_455  A
C453        C454   1.393       .  A
C453        F456   1.359       .  S
C454        F458   1.359       .  S
C461        C462   1.407       .  A
C461        C466   1.393       .  A
C461        F479   1.358       .  S
C462        C463   1.404       .  A
C462        C467   1.470       .  S
C463        C464   1.398       .  A
C463        F468   1.358   1_455  S
C464        C465   1.406       .  A
C464        F480   1.358   1_455  S
C465        C466   1.400       .  A
C466        F469   1.358       .  S
C467        C470   1.405       .  A
C467        C474   1.405   1_455  A
C470        C471   1.400       .  A
C470        F475   1.358       .  S
C471        C472   1.406       .  A
C471        F477   1.358       .  S
C472        C473   1.402   1_455  A
C473        C474   1.390       .  A
C473        F476   1.358       .  S
C474        F478   1.359       .  S
C481        C482   1.408       .  A
C481        C486   1.403       .  A
C481        F499   1.358       .  S
C482        C483   1.406       .  A
C482        C487   1.490       .  S
C483        C484   1.402       .  A
C483        F488   1.358       .  S
C484        C485   1.409       .  A
C484        F500   1.358       .  S
C485        C486   1.407       .  A
C486        F489   1.358       .  S
C487        C490   1.406       .  A
C487        C494   1.408       .  A
C490        C491   1.401       .  A
C490        F495   1.358       .  S
C491        C492   1.410       .  A
C491        F497   1.357       .  S
C492        C493   1.407       .  A
C493        C494   1.403       .  A
C493        F496   1.357       .  S
C494        F498   1.358       .  S
C501        C502   1.405   1_554  A
C501        C506   1.403       .  A
C501        F519   1.358       .  S
C502        C503   1.405       .  A
C502        C507   1.485       .  S
C503        C504   1.401       .  A
C503        F508   1.358       .  S
C504        C505   1.409       .  A
C504        F520   1.358       .  S
C505        C506   1.411   1_556  A
C506        F509   1.358       .  S
C507        C510   1.405       .  A
C507        C514   1.405   1_556  A
C510        C511   1.401       .  A
C510        F515   1.358       .  S
C511        C512   1.409       .  A
C511        F517   1.357       .  S
C512        C513   1.411   1_556  A
C513        C514   1.402       .  A
C513        F516   1.357       .  S
C514        F518   1.358       .  S
C521        C522   1.405       .  A
C521        C526   1.398       .  A
C521        F539   1.358       .  S
C522        C523   1.405       .  A
C522        C527   1.474       .  S
C523        C524   1.395       .  A
C523        F528   1.358       .  S
C524        C525   1.403       .  A
C524        F540   1.359       .  S
C525        C526   1.402       .  A
C526        F529   1.358       .  S
C527        C530   1.401       .  A
C527        C534   1.406       .  A
C530        C531   1.401       .  A
C530        F535   1.357       .  S
C531        C532   1.412       .  A
C531        F537   1.358       .  S
C532        C533   1.406       .  A
C533        C534   1.391       .  A
C533        F536   1.358       .  S
C534        F538   1.359       .  S
C541        C542   1.404       .  A
C541        C546   1.390       .  A
C541        F559   1.359       .  S
C542        C543   1.398       .  A
C542        C547   1.467       .  S
C543        C544   1.398       .  A
C543        F548   1.357       .  S
C544        C545   1.413       .  A
C544        F560   1.358       .  S
C545        C546   1.406       .  A
C546        F549   1.358       .  S
C547        C550   1.403       .  A
C547        C554   1.404       .  A
C550        C551   1.395       .  A
C550        F555   1.358       .  S
C551        C552   1.403       .  A
C551        F557   1.358       .  S
C552        C553   1.401       .  A
C553        C554   1.396       .  A
C553        F556   1.358       .  S
C554        F558   1.358       .  S
C561        C562   1.401   1_545  A
C561        C566   1.399       .  A
C561        F579   1.358       .  S
C562        C563   1.402       .  A
C562        C567   1.475       .  S
C563        C564   1.399       .  A
C563        F568   1.358       .  S
C564        C565   1.412   1_565  A
C564        F580   1.357       .  S
C565        C566   1.411       .  A
C566        F569   1.357       .  S
C567        C570   1.399   1_565  A
C567        C574   1.403       .  A
C570        C571   1.397       .  A
C570        F575   1.358       .  S
C571        C572   1.413   1_545  A
C571        F577   1.358       .  S
C572        C573   1.412       .  A
C573        C574   1.402       .  A
C573        F576   1.358       .  S
C574        F578   1.358       .  S
C581        C582   1.406       .  A
C581        C586   1.406       .  A
C581        F599   1.358       .  S
C582        C583   1.406       .  A
C582        C587   1.498       .  S
C583        C584   1.404       .  A
C583        F588   1.358   1_565  S
C584        C585   1.417       .  A
C584        F600   1.357   1_565  S
C585        C586   1.414       .  A
C586        F589   1.356       .  S
C587        C590   1.406       .  A
C587        C594   1.405       .  A
C590        C591   1.406       .  A
C590        F595   1.358   1_565  S
C591        C592   1.415       .  A
C591        F597   1.356   1_565  S
C592        C593   1.418       .  A
C593        C594   1.403       .  A
C593        F596   1.356       .  S
C594        F598   1.358       .  S
C601        C602   1.406       .  A
C601        C606   1.406       .  A
C601        F619   1.358   1_565  S
C602        C603   1.408       .  A
C602        C607   1.503       .  S
C603        C604   1.408       .  A
C603        F608   1.358       .  S
C604        C605   1.417       .  A
C604        F620   1.357       .  S
C605        C606   1.417       .  A
C606        F609   1.356   1_565  S
C607        C610   1.407   1_565  A
C607        C614   1.406       .  A
C610        C611   1.408       .  A
C610        F615   1.358       .  S
C611        C612   1.416   1_545  A
C611        F617   1.355       .  S
C612        C613   1.418       .  A
C613        C614   1.408       .  A
C613        F616   1.356       .  S
C614        F618   1.358       .  S
C621        C622   1.408       .  A
C621        C626   1.403       .  A
C621        F639   1.358       .  S
C622        C623   1.409   1_565  A
C622        C627   1.495       .  S
C623        C624   1.402       .  A
C623        F628   1.358       .  S
C624        C625   1.407   1_545  A
C624        F640   1.358       .  S
C625        C626   1.409       .  A
C626        F629   1.358       .  S
C627        C630   1.409       .  A
C627        C634   1.407       .  A
C630        C631   1.405       .  A
C630        F635   1.357       .  S
C631        C632   1.409       .  A
C631        F637   1.357       .  S
C632        C633   1.411       .  A
C633        C634   1.400       .  A
C633        F636   1.357   1_564  S
C634        F638   1.358   1_564  S
C641        C642   1.404       .  A
C641        C646   1.397       .  A
C641        F659   1.358       .  S
C642        C643   1.405       .  A
C642        C647   1.482       .  S
C643        C644   1.401       .  A
C643        F648   1.358       .  S
C644        C645   1.410       .  A
C644        F660   1.356       .  S
C645        C646   1.411       .  A
C646        F649   1.357       .  S
C647        C650   1.404       .  A
C647        C654   1.404       .  A
C650        C651   1.400       .  A
C650        F655   1.358       .  S
C651        C652   1.411       .  A
C651        F657   1.357       .  S
C652        C653   1.410       .  A
C653        C654   1.399       .  A
C653        F656   1.357       .  S
C654        F658   1.358       .  S
C661        C662   1.404       .  A
C661        C666   1.404       .  A
C661        F679   1.358       .  S
C662        C663   1.402       .  A
C662        C667   1.480       .  S
C663        C664   1.399       .  A
C663        F668   1.358       .  S
C664        C665   1.410       .  A
C664        F680   1.357       .  S
C665        C666   1.412       .  A
C666        F669   1.357       .  S
C667        C670   1.404       .  A
C667        C674   1.404       .  A
C670        C671   1.401       .  A
C670        F675   1.358       .  S
C671        C672   1.408       .  A
C671        F677   1.357       .  S
C672        C673   1.409       .  A
C673        C674   1.401       .  A
C673        F676   1.357       .  S
C674        F678   1.358       .  S
C681        C682   1.406       .  A
C681        C686   1.401       .  A
C681        F699   1.358       .  S
C682        C683   1.407       .  A
C682        C687   1.489       .  S
C683        C684   1.405       .  A
C683        F688   1.358       .  S
C684        C685   1.408       .  A
C684        F700   1.357       .  S
C685        C686   1.408       .  A
C686        F689   1.357       .  S
C687        C690   1.407       .  A
C687        C694   1.405       .  A
C690        C691   1.405       .  A
C690        F695   1.358       .  S
C691        C692   1.409       .  A
C691        F697   1.358       .  S
C692        C693   1.409       .  A
C693        C694   1.401       .  A
C693        F696   1.358       .  S
C694        F698   1.358       .  S
C701        C702   1.403   1_556  A
C701        C706   1.403       .  A
C701        F719   1.358       .  S
C702        C703   1.403       .  A
C702        C707   1.486       .  S
C703        C704   1.403       .  A
C703        F708   1.358       .  S
C704        C705   1.414       .  A
C704        F720   1.356       .  S
C705        C706   1.415   1_554  A
C706        F709   1.356       .  S
C707        C710   1.405       .  A
C707        C714   1.406   1_554  A
C710        C711   1.403       .  A
C710        F715   1.358       .  S
C711        C712   1.408       .  A
C711        F717   1.357       .  S
C712        C713   1.409   1_554  A
C713        C714   1.404       .  A
C713        F716   1.357       .  S
C714        F718   1.358       .  S
C721        C722   1.406       .  A
C721        C726   1.400       .  A
C721        F739   1.358   1_554  S
C722        C723   1.406       .  A
C722        C727   1.484       .  S
C723        C724   1.405       .  A
C723        F728   1.357       .  S
C724        C725   1.406       .  A
C724        F740   1.357       .  S
C725        C726   1.404       .  A
C726        F729   1.357       .  S
C727        C730   1.402       .  A
C727        C734   1.406   1_554  A
C730        C731   1.398       .  A
C730        F735   1.358       .  S
C731        C732   1.410       .  A
C731        F737   1.357       .  S
C732        C733   1.411   1_554  A
C733        C734   1.406       .  A
C733        F736   1.357       .  S
C734        F738   1.358       .  S
C741        C742   1.407       .  A
C741        C746   1.406       .  A
C741        F759   1.358       .  S
C742        C743   1.408       .  A
C742        C747   1.502       .  S
C743        C744   1.405       .  A
C743        F748   1.358       .  S
C744        C745   1.416       .  A
C744        F760   1.356       .  S
C745        C746   1.415       .  A
C746        F749   1.357       .  S
C747        C750   1.407       .  A
C747        C754   1.407       .  A
C750        C751   1.406       .  A
C750        F755   1.358       .  S
C751        C752   1.415       .  A
C751        F757   1.354       .  S
C752        C753   1.418       .  A
C753        C754   1.404       .  A
C753        F756   1.356       .  S
C754        F758   1.358       .  S
C761        C762   1.408       .  A
C761        C766   1.410       .  A
C761        F779   1.357       .  S
C762        C763   1.402       .  A
C762        C767   1.498       .  S
C763        C764   1.404       .  A
C763        F768   1.358       .  S
C764        C765   1.419       .  A
C764        F780   1.357       .  S
C765        C766   1.416       .  A
C766        F769   1.356       .  S
C767        C770   1.403       .  A
C767        C774   1.405       .  A
C770        C771   1.405       .  A
C770        F775   1.358       .  S
C771        C772   1.420       .  A
C771        F777   1.356       .  S
C772        C773   1.418       .  A
C773        C774   1.408       .  A
C773        F776   1.355       .  S
C774        F778   1.358       .  S
C781        C782   1.406       .  A
C781        C786   1.401       .  A
C781        F799   1.358       .  S
C782        C783   1.408       .  A
C782        C787   1.491       .  S
C783        C784   1.404       .  A
C783        F788   1.358       .  S
C784        C785   1.409       .  A
C784        F800   1.358       .  S
C785        C786   1.409       .  A
C786        F789   1.358       .  S
C787        C790   1.405       .  A
C787        C794   1.406   1_556  A
C790        C791   1.402       .  A
C790        F795   1.358       .  S
C791        C792   1.414   1_556  A
C791        F797   1.357       .  S
C792        C793   1.413       .  A
C793        C794   1.404       .  A
C793        F796   1.356       .  S
C794        F798   1.358       .  S
