geometry optimzed in LAMMPS
_audit_creation_date              2020-11-30 
_audit_creation_method            'lammps2cif' 
_symmetry_space_group_name_H-M    'P1' 
_symmetry_Int_Tables_number       1 
_symmetry_cell_setting            triclinic 
loop_ 
_symmetry_equiv_pos_as_xyz 
  x,y,z 
_cell_length_a                    27.89052536 
_cell_length_b                    27.87904554135415 
_cell_length_c                    27.884857773587136 
_cell_angle_alpha                 89.90708747414297 
_cell_angle_beta                  89.91733105797043 
_cell_angle_gamma                 90.04740276775428 
loop_ 
_atom_site_label 
_atom_site_type_symbol 
_atom_site_fract_x 
_atom_site_fract_y 
_atom_site_fract_z 
_atom_site_charge 
O1          O  0.55513158  0.45516703  0.03943666    -0.73000
O2          O  0.44555853  0.54699657  0.04043949    -0.74000
O3          O  0.45301526  0.44622533  0.04167284    -0.62600
O4          O  0.54741568  0.55624742  0.03725484    -0.71000
O5          O  0.54455906  0.55488977  0.95772272    -0.70600
O6          O  0.45230093  0.44511958  0.96207493    -0.61800
O7          O  0.44349760  0.54703179  0.96082919    -0.74400
O8          O  0.55352776  0.45278541  0.95989920    -0.73100
Cu9        Cu  0.50036423  0.50122551  0.04245455     1.04600
Cu10       Cu  0.49842034  0.49991976  0.95733747     1.04300
C11         C  0.57171872  0.43932647  0.99981902     0.93200
C12         C  0.42706438  0.56142004  0.00116168     0.92300
C13         C  0.43788318  0.42839093  0.00225059     0.84500
C14         C  0.56066855  0.57292450  0.99655871     0.90700
O15         O  0.55952388  0.03700980  0.54955848    -0.73000
O16         O  0.45574821  0.04866770  0.44998779    -0.74000
O17         O  0.45856946  0.05009504  0.55244542    -0.62600
O18         O  0.55632030  0.03606541  0.44755208    -0.71000
O19         O  0.54567707  0.95726332  0.44879646    -0.70600
O20         O  0.44781052  0.97130877  0.55338239    -0.61800
O21         O  0.44507860  0.96983781  0.45179157    -0.74400
O22         O  0.54799946  0.95829313  0.55085936    -0.73100
Cu23       Cu  0.50786384  0.04575583  0.49983924     1.04600
Cu24       Cu  0.49634453  0.96148575  0.50122938     1.04300
C25         C  0.56970706  0.99553840  0.56633056     0.93200
C26         C  0.43432102  0.01102902  0.43488602     0.92300
C27         C  0.43801905  0.01291370  0.56986732     0.84500
C28         C  0.56616312  0.99441449  0.43124286     0.90700
O29         O  0.95154322  0.55101661  0.46093227    -0.73000
O30         O  0.96413419  0.44578940  0.55854291    -0.74000
O31         O  0.96844608  0.54746166  0.56124643    -0.62600
O32         O  0.94734222  0.44868685  0.45859098    -0.71000
O33         O  0.02575873  0.44653483  0.44564202    -0.70600
O34         O  0.04675558  0.54496581  0.54769468    -0.61800
O35         O  0.04246076  0.44275380  0.54504803    -0.74400
O36         O  0.02983605  0.54804614  0.44738620    -0.73100
Cu37       Cu  0.95512388  0.49839611  0.51028484     1.04600
Cu38       Cu  0.03890370  0.49553982  0.49601386     1.04300
C39         C  0.98870359  0.56627562  0.43872192     0.93200
C40         C  0.00515843  0.42714648  0.56673883     0.92300
C41         C  0.01089833  0.56199489  0.57060096     0.84500
C42         C  0.98352915  0.43148970  0.43630742     0.90700
C43         C  0.22713940  0.23570508  0.02170647     0.03000
C44         C  0.24179763  0.18706303  0.01841327    -0.13100
C45         C  0.20797778  0.15122702  0.00872245     0.00500
C46         C  0.16044381  0.16514343  0.00050474    -0.11600
C47         C  0.14395020  0.21201825  0.00758365     0.03000
C48         C  0.17782384  0.24779024  0.01789558    -0.11000
H49         H  0.27904819  0.17741975  0.02362616     0.08600
H50         H  0.13486862  0.13805504  0.98976276     0.06200
H51         H  0.16624707  0.28463827  0.02203138     0.06000
C52         C  0.23557459  0.77255064  0.99719595     0.03000
C53         C  0.24842003  0.82162574  0.00062102    -0.13100
C54         C  0.21349972  0.85576988  0.01216439     0.00500
C55         C  0.16675148  0.83979187  0.02172647    -0.11600
C56         C  0.15194504  0.79256904  0.01315811     0.03000
C57         C  0.18697266  0.75841092  0.00208387    -0.11000
H58         H  0.28508422  0.83294167  0.99445115     0.08600
H59         H  0.14021534  0.86569449  0.03322257     0.06200
H60         H  0.17659741  0.72144013  0.99614799     0.06000
C61         C  0.24215107  0.99684704  0.77775509     0.03000
C62         C  0.19362206  0.99794504  0.76301608    -0.13100
C63         C  0.15740387  0.00570368  0.79689386     0.00500
C64         C  0.17079959  0.01376666  0.84454656    -0.11600
C65         C  0.21777633  0.00737993  0.86115389     0.03000
C66         C  0.25418004  0.00016486  0.82705203    -0.11000
H67         H  0.18440752  0.99261938  0.72568399     0.08600
H68         H  0.14309301  0.02291088  0.87014174     0.06200
H69         H  0.29109228  0.99640356  0.83846726     0.06000
O70         O  0.26169699  0.92986066  0.01133725    -0.73000
O71         O  0.25929919  0.07925127  0.01111226    -0.74000
O72         O  0.25762670  0.00450154  0.08566206    -0.62600
O73         O  0.26414643  0.00526333  0.93643997    -0.71000
O74         O  0.18504477  0.00331095  0.93856799    -0.70600
O75         O  0.17890472  0.00228042  0.07747965    -0.61800
O76         O  0.18053879  0.07190117  0.00828802    -0.74400
O77         O  0.18264268  0.93349546  0.00778325    -0.73100
Cu78       Cu  0.26431814  0.00466449  0.01124844     1.04600
Cu79       Cu  0.17997837  0.00265493  0.00790437     1.04300
C80         C  0.22070512  0.90872147  0.01036649     0.93200
C81         C  0.21748837  0.09851438  0.00932058     0.92300
C82         C  0.21555421  0.00379459  0.10449260     0.84500
C83         C  0.22370913  0.00530288  0.91443094     0.90700
C84         C  0.22494267  0.99262403  0.24168736     0.03000
C85         C  0.17558175  0.99389824  0.25381139    -0.13100
C86         C  0.14145123  0.00246494  0.21800650     0.00500
C87         C  0.15778568  0.01028044  0.17100349    -0.11600
C88         C  0.20569404  0.00436862  0.15719006     0.03000
C89         C  0.23980037  0.99671320  0.19320452    -0.11000
H90         H  0.16418825  0.98883776  0.29060832     0.08600
H91         H  0.13193194  0.01957955  0.14365984     0.06200
H92         H  0.27736771  0.99340469  0.18384326     0.06000
C93         C  0.76408246  0.22791930  0.98495553     0.03000
C94         C  0.81269971  0.24204806  0.99061866    -0.13100
C95         C  0.84787287  0.20749687  0.00036767     0.00500
C96         C  0.83315571  0.15995651  0.00685590    -0.11600
C97         C  0.78680563  0.14397906  0.99622681     0.03000
C98         C  0.75167045  0.17846540  0.98585706    -0.11000
H99         H  0.82287838  0.27939265  0.98692866     0.08600
H100        H  0.85947257  0.13388421  0.01832140     0.06200
H101        H  0.71509263  0.16718301  0.97927449     0.06000
C102        C  0.99158502  0.22765413  0.77103483     0.03000
C103        C  0.99714697  0.17892451  0.75774169    -0.13100
C104        C  0.00484999  0.14405557  0.79313495     0.00500
C105        C  0.00922757  0.15929382  0.84085681    -0.11600
C106        C  0.00096810  0.20673695  0.85542628     0.03000
C107        C  0.99229236  0.24122782  0.81998220    -0.11000
H108        H  0.99462347  0.16843891  0.72044578     0.08600
H109        H  0.01799511  0.13290187  0.86791329     0.06200
H110        H  0.98645285  0.27827641  0.83012536     0.06000
O111        O  0.99862894  0.17832903  0.93436046    -0.73000
O112        O  0.99389875  0.17986156  0.07235401    -0.74000
O113        O  0.92688115  0.17876066  0.00129277    -0.62600
O114        O  0.06583202  0.18063882  0.00587468    -0.71000
O115        O  0.06965641  0.25975073  0.00528311    -0.70600
O116        O  0.92057440  0.25770518  0.00076064    -0.61800
O117        O  0.99232326  0.25884910  0.07749684    -0.74400
O118        O  0.99744689  0.25726328  0.92799475    -0.73100
Cu119      Cu  0.99636056  0.17760141  0.00347310     1.04600
Cu120      Cu  0.99501428  0.26203252  0.00279024     1.04300
C121        C  0.99899171  0.21561374  0.90822631     0.93200
C122        C  0.99166056  0.21743756  0.09784312     0.92300
C123        C  0.90074905  0.21612048  0.00098106     0.84500
C124        C  0.09078936  0.21883273  0.00614802     0.90700
C125        C  0.99599869  0.23024233  0.23484069     0.03000
C126        C  0.99366475  0.18129442  0.24822985    -0.13100
C127        C  0.98779949  0.14620331  0.21283261     0.00500
C128        C  0.98195323  0.16133445  0.16529444    -0.11600
C129        C  0.98858166  0.20900739  0.15059619     0.03000
C130        C  0.99502088  0.24394869  0.18595907    -0.11000
H131        H  0.99723559  0.17090614  0.28548918     0.08600
H132        H  0.97399489  0.13459268  0.13839698     0.06200
H133        H  0.99948331  0.28123002  0.17584843     0.06000
C134        C  0.00370505  0.76656277  0.23444471     0.03000
C135        C  0.99965175  0.81527842  0.24850024    -0.13100
C136        C  0.99174890  0.85070618  0.21359781     0.00500
C137        C  0.98484479  0.83607355  0.16608294    -0.11600
C138        C  0.99359696  0.78922487  0.15060000     0.03000
C139        C  0.00256769  0.75398280  0.18527125    -0.11000
H140        H  0.00352598  0.82526167  0.28580168     0.08600
H141        H  0.97490807  0.86270645  0.13963831     0.06200
H142        H  0.00835562  0.71713110  0.17435437     0.06000
C143        C  0.76215949  0.00684185  0.22392078     0.03000
C144        C  0.75016774  0.00258799  0.17477247    -0.13100
C145        C  0.78635709  0.99362532  0.14099455     0.00500
C146        C  0.83326714  0.98679626  0.15781691    -0.11600
C147        C  0.84655535  0.99470034  0.20566544     0.03000
C148        C  0.81042515  0.00423003  0.23908641    -0.11000
H149        H  0.71336395  0.00691612  0.16318943     0.08600
H150        H  0.86085275  0.97702685  0.13232071     0.06200
H151        H  0.81950002  0.00964374  0.27644582     0.06000
O152        O  0.99661545  0.92913823  0.18398126    -0.73000
O153        O  0.99361741  0.06780903  0.18324237    -0.74000
O154        O  0.06411144  0.99994626  0.18623552    -0.62600
O155        O  0.92625977  0.99680719  0.17980255    -0.71000
O156        O  0.91715269  0.99718819  0.25851280    -0.70600
O157        O  0.06646516  0.99982741  0.26533858    -0.61800
O158        O  0.99002128  0.07299819  0.26219399    -0.74400
O159        O  0.99219725  0.92393474  0.26290397    -0.73100
Cu160      Cu  0.99536511  0.99842386  0.18154295     1.04600
Cu161      Cu  0.99145145  0.99850042  0.26590703     1.04300
C162        C  0.99362976  0.90357496  0.22165278     0.93200
C163        C  0.99053326  0.09334100  0.22083965     0.92300
C164        C  0.08832058  0.00073488  0.22468671     0.84500
C165        C  0.89891235  0.99615265  0.21619232     0.90700
C166        C  0.77329229  0.76418335  0.00396591     0.03000
C167        C  0.75923989  0.81282405  0.99905990    -0.13100
C168        C  0.79378982  0.84812204  0.98968847     0.00500
C169        C  0.84125104  0.83357670  0.98243978    -0.11600
C170        C  0.85705204  0.78687892  0.99210615     0.03000
C171        C  0.82256589  0.75166586  0.00229187    -0.11000
H172        H  0.72203094  0.82298238  0.00356748     0.08600
H173        H  0.86738848  0.86029938  0.97178896     0.06200
H174        H  0.83375166  0.71500211  0.00867114     0.06000
C175        C  0.00687124  0.76400610  0.77255897     0.03000
C176        C  0.01137387  0.81249608  0.75765733    -0.13100
C177        C  0.02008445  0.84830687  0.79192536     0.00500
C178        C  0.02744290  0.83404068  0.83961698    -0.11600
C179        C  0.01756426  0.78757144  0.85587902     0.03000
C180        C  0.00800721  0.75202046  0.82185043    -0.11000
H181        H  0.00682864  0.82206361  0.72029582     0.08600
H182        H  0.03778321  0.86082528  0.86570883     0.06200
H183        H  0.00127933  0.71548719  0.83336870     0.06000
C184        C  0.77941486  0.00177371  0.76036308     0.03000
C185        C  0.82893428  0.99878481  0.74916247    -0.13100
C186        C  0.86222285  0.98962685  0.78569548     0.00500
C187        C  0.84485555  0.98274515  0.83239083    -0.11600
C188        C  0.79699266  0.99109518  0.84531270     0.03000
C189        C  0.76369179  0.99908285  0.80864788    -0.11000
H190        H  0.84112150  0.00341652  0.71256360     0.08600
H191        H  0.87001760  0.97300150  0.86024171     0.06200
H192        H  0.72618522  0.00422407  0.81739914     0.06000
O193        O  0.74455167  0.99439687  0.91656817    -0.73000
O194        O  0.73937354  0.99408121  0.06606224    -0.74000
O195        O  0.73957074  0.06933256  0.99182844    -0.62600
O196        O  0.74336620  0.92032684  0.99065238    -0.71000
O197        O  0.82225269  0.92716692  0.99360419    -0.70600
O198        O  0.81863710  0.06619766  0.99410693    -0.61800
O199        O  0.81847636  0.99637927  0.06335724    -0.74400
O200        O  0.82326624  0.99677993  0.92472632    -0.73100
Cu201      Cu  0.73811563  0.99458846  0.99116298     1.04600
Cu202      Cu  0.82248715  0.99679424  0.99401740     1.04300
C203        C  0.78668834  0.99427713  0.89778784     0.93200
C204        C  0.78002922  0.99460762  0.08776601     0.92300
C205        C  0.78027611  0.09080978  0.99387638     0.84500
C206        C  0.78506787  0.90085458  0.99123689     0.90700
O207        O  0.07807049  0.99978277  0.82400596    -0.73000
O208        O  0.93947393  0.99191295  0.81873121    -0.74000
O209        O  0.01283083  0.92658789  0.82110395    -0.62600
O210        O  0.00502734  0.06509007  0.82209467    -0.71000
O211        O  0.00840799  0.07118380  0.74319950    -0.70600
O212        O  0.01631944  0.92168513  0.74216500    -0.61800
O213        O  0.93757917  0.99274554  0.73956724    -0.74400
O214        O  0.08627260  0.00068019  0.74519792    -0.73100
Cu215      Cu  0.00870906  0.99576711  0.82329628     1.04600
Cu216      Cu  0.01218503  0.99654387  0.73891453     1.04300
C217        C  0.10496515  0.00203999  0.78723494     0.93200
C218        C  0.91549317  0.99117813  0.78001632     0.92300
C219        C  0.01651357  0.90118157  0.78351022     0.84500
C220        C  0.00619610  0.09112908  0.78469459     0.90700
O221        O  0.01030108  0.81921645  0.93345176    -0.73000
O222        O  0.99778868  0.81972568  0.07222648    -0.74000
O223        O  0.07316467  0.82130136  0.00898341    -0.62600
O224        O  0.93481659  0.81829551  0.99682292    -0.71000
O225        O  0.93099958  0.73915672  0.99844434    -0.70600
O226        O  0.07962224  0.74229359  0.00864627    -0.61800
O227        O  0.00010913  0.74066901  0.07762176    -0.74400
O228        O  0.01082174  0.74001277  0.92958973    -0.73100
Cu229      Cu  0.00393583  0.82156272  0.00286571     1.04600
Cu230      Cu  0.00541829  0.73700339  0.00361459     1.04300
C231        C  0.01290445  0.78102456  0.90869278     0.93200
C232        C  0.99703103  0.78189827  0.09778644     0.92300
C233        C  0.09923452  0.78398109  0.01057823     0.84500
C234        C  0.90999346  0.78007040  0.99569008     0.90700
C235        C  0.01843486  0.59932878  0.60753847    -0.05300
C236        C  0.06298964  0.62265669  0.61148802    -0.05300
C237        C  0.06943624  0.65985108  0.64438322    -0.23400
C238        C  0.03161305  0.67416867  0.67421607     0.18800
C239        C  0.98708631  0.64995933  0.67162562     0.16000
C240        C  0.98075760  0.61292661  0.63819841    -0.18500
C241        C  0.94960485  0.66343395  0.70236547    -0.20300
C242        C  0.95601851  0.70076239  0.73512304    -0.12800
C243        C  0.99969372  0.72565964  0.73700739     0.03800
C244        C  0.03742973  0.71222267  0.70659075    -0.25000
H245        H  0.09263538  0.61280791  0.58843965     0.08900
H246        H  0.10397093  0.67772150  0.64620762     0.12500
H247        H  0.94633586  0.59487632  0.63591411     0.12400
H248        H  0.91533759  0.64501930  0.70114565     0.12200
H249        H  0.92687431  0.71048940  0.75887081     0.12700
H250        H  0.07150668  0.73100232  0.70874103     0.14700
C251        C  0.00926501  0.38689470  0.60106183    -0.05300
C252        C  0.04996535  0.35717300  0.60076836    -0.05300
C253        C  0.05357211  0.31861879  0.63263792    -0.23400
C254        C  0.01690068  0.30958222  0.66587181     0.18800
C255        C  0.97591707  0.33943556  0.66664594     0.16000
C256        C  0.97214178  0.37746763  0.63390012    -0.18500
C257        C  0.93980027  0.33123641  0.70073120    -0.20300
C258        C  0.94469177  0.29446808  0.73443596    -0.12800
C259        C  0.98521645  0.26469716  0.73382722     0.03800
C260        C  0.02090218  0.27190428  0.69902814    -0.25000
H261        H  0.07884778  0.36346529  0.57554410     0.08900
H262        H  0.08528297  0.29615569  0.63160881     0.12500
H263        H  0.94063132  0.40026537  0.63458459     0.12400
H264        H  0.90817126  0.35381958  0.70187730     0.12200
H265        H  0.91692159  0.28922113  0.76111803     0.12700
H266        H  0.05248529  0.24916974  0.69891100     0.14700
C267        C  0.00927805  0.72858213  0.27091696    -0.05300
C268        C  0.05029898  0.69948456  0.27119560    -0.05300
C269        C  0.05476889  0.66230043  0.30458301    -0.23400
C270        C  0.01781588  0.65304987  0.33752923     0.18800
C271        C  0.97603493  0.68177500  0.33691258     0.16000
C272        C  0.97234198  0.71976941  0.30401077    -0.18500
C273        C  0.93853321  0.67166718  0.36889290    -0.20300
C274        C  0.94244610  0.63371750  0.40146439    -0.12800
C275        C  0.98419040  0.60551351  0.40310927     0.03800
C276        C  0.02177541  0.61544424  0.37086089    -0.25000
H277        H  0.07888426  0.70573377  0.24562127     0.08900
H278        H  0.08694979  0.64048263  0.30434071     0.12500
H279        H  0.94028415  0.74182504  0.30327722     0.12400
H280        H  0.90610981  0.69310785  0.36869357     0.12200
H281        H  0.91299613  0.62686364  0.42588292     0.12700
H282        H  0.05400492  0.59367867  0.37141476     0.14700
C283        C  0.97710116  0.39345997  0.39996820    -0.05300
C284        C  0.93177373  0.37308038  0.39139411    -0.05300
C285        C  0.92641637  0.33630756  0.35775014    -0.23400
C286        C  0.96623151  0.31946812  0.33203685     0.18800
C287        C  0.01189654  0.33990563  0.34035807     0.16000
C288        C  0.01697487  0.37649099  0.37424665    -0.18500
C289        C  0.05177048  0.32359067  0.31444699    -0.20300
C290        C  0.04647380  0.28762216  0.28017160    -0.12800
C291        C  0.00139071  0.26717228  0.27183047     0.03800
C292        C  0.96134606  0.28286532  0.29791347    -0.25000
H293        H  0.90052891  0.38535257  0.41088458     0.08900
H294        H  0.89112118  0.32108214  0.35179630     0.12500
H295        H  0.05220532  0.39181856  0.38047266     0.12400
H296        H  0.08702271  0.33893731  0.32043117     0.12200
H297        H  0.07747473  0.27568083  0.26006654     0.12700
H298        H  0.92644615  0.26701211  0.29106744     0.14700
C299        C  0.74389023  0.00819247  0.72176260    -0.05300
C300        C  0.74510050  0.04898190  0.69225434    -0.05300
C301        C  0.71067485  0.05531415  0.65635198    -0.23400
C302        C  0.67517039  0.02041461  0.64885560     0.18800
C303        C  0.67447862  0.97876679  0.67792798     0.16000
C304        C  0.70844958  0.97325104  0.71453759    -0.18500
C305        C  0.63998043  0.94322291  0.66975631    -0.20300
C306        C  0.60639378  0.94872940  0.63314796    -0.12800
C307        C  0.60615894  0.99022854  0.60442706     0.03800
C308        C  0.64058898  0.02616717  0.61267142    -0.25000
H309        H  0.77229296  0.07621083  0.69753305     0.08900
H310        H  0.71194749  0.08736627  0.63431879     0.12500
H311        H  0.70781941  0.94150047  0.73710275     0.12400
H312        H  0.63906537  0.91099953  0.69160374     0.12200
H313        H  0.58012275  0.92066981  0.62769752     0.12700
H314        H  0.64092455  0.05819694  0.59052096     0.14700
C315        C  0.40323936  0.01785815  0.60978332    -0.05300
C316        C  0.39550099  0.06265235  0.63157881    -0.05300
C317        C  0.36355537  0.06717158  0.66999400    -0.23400
C318        C  0.33853095  0.02701539  0.68717525     0.18800
C319        C  0.34580885  0.98182831  0.66537542     0.16000
C320        C  0.37818103  0.97752562  0.62704604    -0.18500
C321        C  0.32020995  0.94175373  0.68199300    -0.20300
C322        C  0.28714717  0.94653164  0.71938274    -0.12800
C323        C  0.27982283  0.99120869  0.74116116     0.03800
C324        C  0.30581174  0.03132879  0.72527323    -0.25000
H325        H  0.41440444  0.09426756  0.61914371     0.08900
H326        H  0.35832176  0.10208852  0.68616196     0.12500
H327        H  0.38366923  0.94276172  0.61058993     0.12400
H328        H  0.32522913  0.90688531  0.66562068     0.12200
H329        H  0.26687376  0.91550553  0.73107896     0.12700
H330        H  0.29954069  0.06597683  0.74174277     0.14700
C331        C  0.60097814  0.98920039  0.39145516    -0.05300
C332        C  0.60963305  0.94389807  0.37113523    -0.05300
C333        C  0.64182585  0.93873403  0.33312036    -0.23400
C334        C  0.66615756  0.97875280  0.31482339     0.18800
C335        C  0.65790319  0.02455220  0.33495456     0.16000
C336        C  0.62526173  0.02950083  0.37298427    -0.18500
C337        C  0.68285338  0.06449599  0.31700573    -0.20300
C338        C  0.71623930  0.05892826  0.27999105    -0.12800
C339        C  0.72446203  0.01355244  0.26006509     0.03800
C340        C  0.69916124  0.97363842  0.27722605    -0.25000
H341        H  0.59134076  0.91230505  0.38451530     0.08900
H342        H  0.64783466  0.90339262  0.31816097     0.12500
H343        H  0.61898965  0.06465963  0.38827557     0.12400
H344        H  0.67708076  0.09984549  0.33204790     0.12200
H345        H  0.73603294  0.08982669  0.26719169     0.12700
H346        H  0.70615712  0.93851592  0.26206822     0.14700
C347        C  0.39734183  0.01493936  0.39716572    -0.05300
C348        C  0.39520920  0.05593782  0.36787734    -0.05300
C349        C  0.36149170  0.05915359  0.33105897    -0.23400
C350        C  0.32884232  0.02175405  0.32331254     0.18800
C351        C  0.32996919  0.98069914  0.35315214     0.16000
C352        C  0.36455545  0.97733906  0.38951664    -0.18500
C353        C  0.29631067  0.94390492  0.34618981    -0.20300
C354        C  0.26182107  0.94781949  0.31004314    -0.12800
C355        C  0.26121284  0.98806370  0.27978723     0.03800
C356        C  0.29488014  0.02483191  0.28644585    -0.25000
H357        H  0.42018272  0.08523284  0.37293778     0.08900
H358        H  0.36092433  0.09098690  0.30863526     0.12500
H359        H  0.36564419  0.94565739  0.41214026     0.12400
H360        H  0.29647701  0.91228378  0.36887633     0.12200
H361        H  0.23590458  0.91927866  0.30529184     0.12700
H362        H  0.29397521  0.05621722  0.26337183     0.14700
C363        C  0.73636545  0.72664052  0.01094600    -0.05300
C364        C  0.74038997  0.69293699  0.04822726    -0.05300
C365        C  0.70560336  0.65723154  0.05422900    -0.23400
C366        C  0.66674825  0.65407430  0.02248238     0.18800
C367        C  0.66286182  0.68752333  0.98445997     0.16000
C368        C  0.69728196  0.72388771  0.97939197    -0.18500
C369        C  0.62508404  0.68350197  0.95165727    -0.20300
C370        C  0.59180079  0.64631909  0.95596418    -0.12800
C371        C  0.59500472  0.61315792  0.99381547     0.03800
C372        C  0.63224222  0.61759611  0.02741168    -0.25000
H373        H  0.77023356  0.69458187  0.07294507     0.08900
H374        H  0.70936759  0.63175089  0.08343369     0.12500
H375        H  0.69438959  0.74944323  0.95009408     0.12400
H376        H  0.62167865  0.70872766  0.92217652     0.12200
H377        H  0.56332335  0.64352578  0.92976934     0.12700
H378        H  0.63527135  0.59169059  0.05636777     0.14700
C379        C  0.61219784  0.40522337  0.00086239    -0.05300
C380        C  0.64637153  0.40835865  0.03769246    -0.05300
C381        C  0.68389185  0.37537875  0.04055308    -0.23400
C382        C  0.68732283  0.33794572  0.00726720     0.18800
C383        C  0.65291160  0.33411605  0.97023771     0.16000
C384        C  0.61599681  0.36832950  0.96676081    -0.18500
C385        C  0.65557262  0.29557827  0.93802176    -0.20300
C386        C  0.69169797  0.26103405  0.94265757    -0.12800
C387        C  0.72633643  0.26493312  0.97899924     0.03800
C388        C  0.72406648  0.30377739  0.01096798    -0.25000
H389        H  0.64412190  0.43656254  0.06425304     0.08900
H390        H  0.70984420  0.37874272  0.06927768     0.12500
H391        H  0.58936359  0.36533388  0.93860446     0.12400
H392        H  0.62938866  0.29184185  0.90956676     0.12200
H393        H  0.69285649  0.23140833  0.91762354     0.12700
H394        H  0.75022264  0.30660999  0.03960441     0.14700
C395        C  0.38625853  0.59475099  0.00320906    -0.05300
C396        C  0.35203119  0.58953834  0.03982078    -0.05300
C397        C  0.31449383  0.62219494  0.04428304    -0.23400
C398        C  0.31123293  0.66130510  0.01292275     0.18800
C399        C  0.34559758  0.66703922  0.97593944     0.16000
C400        C  0.38246289  0.63310886  0.97075175    -0.18500
C401        C  0.34304845  0.70722179  0.94570772    -0.20300
C402        C  0.30718831  0.74161727  0.95239179    -0.12800
C403        C  0.27282219  0.73585066  0.98883875     0.03800
C404        C  0.27482436  0.69535140  0.01865543    -0.25000
H405        H  0.35441158  0.56006217  0.06504422     0.11000
H406        H  0.28850839  0.61736574  0.07289675     0.12500
H407        H  0.40924004  0.63754854  0.94278694     0.12400
H408        H  0.36919175  0.71238621  0.91730543     0.12200
H409        H  0.30605791  0.77259961  0.92897306     0.12700
H410        H  0.24875361  0.69113641  0.04734162     0.14700
C411        C  0.40372157  0.38794558  0.00243192    -0.05300
C412        C  0.40733910  0.35253617  0.96688168    -0.05300
C413        C  0.37464400  0.31469618  0.96521164    -0.23400
C414        C  0.33691559  0.31226296  0.99832810     0.18800
C415        C  0.33242865  0.34800000  0.03400877     0.16000
C416        C  0.36647440  0.38524414  0.03640785    -0.18500
C417        C  0.29341889  0.34626997  0.06587984    -0.20300
C418        C  0.25905558  0.30977104  0.06209065    -0.12800
C419        C  0.26374386  0.27387431  0.02708047     0.03800
C420        C  0.30305462  0.27518341  0.99561079    -0.25000
H421        H  0.43580745  0.35401589  0.94045022     0.08900
H422        H  0.37843828  0.28772717  0.93751390     0.12500
H423        H  0.36312023  0.41288303  0.06351244     0.12400
H424        H  0.28914437  0.37345085  0.09327787     0.12200
H425        H  0.22897531  0.30933645  0.08667383     0.12700
H426        H  0.30644219  0.24802281  0.96800286     0.14700
loop_ 
_geom_bond_atom_site_label_1 
_geom_bond_atom_site_label_2 
_geom_bond_distance 
_geom_bond_site_symmetry_2 
_ccdc_geom_bond_type 
O1           Cu9   1.998       .  S
O1           C11   1.277   1_554  A
O2           Cu9   1.993       .  S
O2           C12   1.276       .  A
O3           Cu9   2.023       .  S
O3           C13   1.279       .  A
O4           Cu9   2.023       .  S
O4           C14   1.280   1_554  A
O5          Cu10   2.000       .  S
O5           C14   1.277       .  A
O6          Cu10   2.000       .  S
O6           C13   1.277   1_556  A
O7          Cu10   2.021       .  S
O7           C12   1.279   1_556  A
O8          Cu10   2.024       .  S
O8           C11   1.280       .  A
Cu9         Cu10   2.375   1_554  S
C11         C379   1.477   1_556  S
C12         C395   1.471       .  S
C13         C411   1.476       .  S
C14         C371   1.476       .  S
O15         Cu23   2.016       .  S
O15          C25   1.279   1_545  A
O16         Cu23   2.014       .  S
O16          C26   1.279       .  A
O17         Cu23   2.013       .  S
O17          C27   1.279       .  A
O18         Cu23   2.005       .  S
O18          C28   1.278   1_545  A
O19         Cu24   2.010       .  S
O19          C28   1.279       .  A
O20         Cu24   2.005       .  S
O20          C27   1.278   1_565  A
O21         Cu24   2.001       .  S
O21          C26   1.277   1_565  A
O22         Cu24   2.001       .  S
O22          C25   1.278       .  A
Cu23        Cu24   2.371   1_545  S
C25         C307   1.479       .  S
C26         C347   1.478       .  S
C27         C315   1.482       .  S
C28         C331   1.481       .  S
O29         Cu37   2.012       .  S
O29          C39   1.279       .  A
O30         Cu37   2.005       .  S
O30          C40   1.278   1_655  A
O31         Cu37   2.009       .  S
O31          C41   1.278   1_655  A
O32         Cu37   2.013       .  S
O32          C42   1.278       .  A
O33         Cu38   1.995       .  S
O33          C42   1.277   1_455  A
O34         Cu38   2.008       .  S
O34          C41   1.278       .  A
O35         Cu38   2.010       .  S
O35          C40   1.278       .  A
O36         Cu38   2.010       .  S
O36          C39   1.278   1_455  A
Cu37        Cu38   2.371   1_655  S
C39         C275   1.482       .  S
C40         C251   1.478       .  S
C41         C235   1.481       .  S
C42         C283   1.479       .  S
C43         C419   1.482       .  S
C43          C44   1.420       .  A
C43          C48   1.420       .  A
C44          C45   1.400       .  A
C44          H49   1.083       .  S
C45          C81   1.494       .  S
C45          C46   1.401       .  A
C46          C47   1.400       .  A
C46          H50   1.081   1_554  S
C47         C124   1.496       .  S
C47          C48   1.404       .  A
C48          H51   1.083       .  S
C52         C403   1.477       .  S
C52          C53   1.417   1_556  A
C52          C57   1.418   1_556  A
C53          C54   1.400       .  A
C53          H58   1.083   1_554  S
C54          C80   1.490       .  S
C54          C55   1.403       .  A
C55          C56   1.400       .  A
C55          H59   1.083       .  S
C56         C233   1.491       .  S
C56          C57   1.399       .  A
C57          H60   1.083   1_554  S
C61         C323   1.472       .  S
C61          C62   1.415       .  A
C61          C66   1.419   1_565  A
C62          C63   1.399   1_565  A
C62          H67   1.083       .  S
C63         C217   1.491       .  S
C63          C64   1.399       .  A
C64          C65   1.402       .  A
C64          H68   1.082       .  S
C65          C83   1.496       .  S
C65          C66   1.405       .  A
C66          H69   1.083   1_545  S
O70         Cu78   2.087   1_565  S
O70          C80   1.286       .  A
O71         Cu78   2.084       .  S
O71          C81   1.285       .  A
O72         Cu78   2.083       .  S
O72          C82   1.285       .  A
O73         Cu78   2.086   1_556  S
O73          C83   1.285       .  A
O74         Cu79   1.938   1_556  S
O74          C83   1.271       .  A
O75         Cu79   1.940       .  S
O75          C82   1.271       .  A
O76         Cu79   1.931       .  S
O76          C81   1.270       .  A
O77         Cu79   1.930   1_565  S
O77          C80   1.269       .  A
Cu78        Cu79   2.355       .  S
C82          C88   1.495       .  S
C84         C355   1.473       .  S
C84          C85   1.418       .  A
C84          C89   1.418       .  A
C85          C86   1.401   1_565  A
C85          H90   1.083       .  S
C86         C164   1.494       .  S
C86          C87   1.404       .  A
C87          C88   1.400       .  A
C87          H91   1.082       .  S
C88          C89   1.400   1_545  A
C89          H92   1.083       .  S
C93         C387   1.484       .  S
C93          C94   1.421       .  A
C93          C98   1.421       .  A
C94          C95   1.402   1_556  A
C94          H99   1.084       .  S
C95         C123   1.494       .  S
C95          C96   1.399       .  A
C96          C97   1.399   1_554  A
C96         H100   1.082       .  S
C97         C205   1.495       .  S
C97          C98   1.403       .  A
C98         H101   1.083       .  S
C102        C259   1.474       .  S
C102        C103   1.417       .  A
C102        C107   1.417       .  A
C103        C104   1.401   1_655  A
C103        H108   1.083       .  S
C104        C220   1.495       .  S
C104        C105   1.403       .  A
C105        C106   1.403       .  A
C105        H109   1.081       .  S
C106        C121   1.494   1_455  S
C106        C107   1.399   1_455  A
C107        H110   1.084       .  S
O111       Cu119   1.928   1_556  S
O111        C121   1.269       .  A
O112       Cu119   1.923       .  S
O112        C122   1.268       .  A
O113       Cu119   1.939       .  S
O113        C123   1.272       .  A
O114       Cu119   1.941   1_455  S
O114        C124   1.272       .  A
O115       Cu120   2.084   1_455  S
O115        C124   1.285       .  A
O116       Cu120   2.080       .  S
O116        C123   1.284       .  A
O117       Cu120   2.086       .  S
O117        C122   1.286       .  A
O118       Cu120   2.091   1_556  S
O118        C121   1.287       .  A
Cu119      Cu120   2.354       .  S
C122        C129   1.492       .  S
C125        C291   1.466   1_655  S
C125        C126   1.416       .  A
C125        C130   1.415       .  A
C126        C127   1.401       .  A
C126        H131   1.083       .  S
C127        C163   1.492       .  S
C127        C128   1.400       .  A
C128        C129   1.402       .  A
C128        H132   1.082       .  S
C129        C130   1.399       .  A
C130        H133   1.084       .  S
C134        C267   1.475       .  S
C134        C135   1.419   1_455  A
C134        C139   1.416       .  A
C135        C136   1.403       .  A
C135        H140   1.083   1_655  S
C136        C162   1.492       .  S
C136        C137   1.400       .  A
C137        C138   1.398       .  A
C137        H141   1.082       .  S
C138        C232   1.490       .  S
C138        C139   1.400   1_655  A
C139        H142   1.084       .  S
C143        C339   1.468       .  S
C143        C144   1.416       .  A
C143        C148   1.413       .  A
C144        C145   1.402   1_545  A
C144        H149   1.083       .  S
C145        C204   1.495       .  S
C145        C146   1.404       .  A
C146        C147   1.403       .  A
C146        H150   1.082       .  S
C147        C165   1.490       .  S
C147        C148   1.398   1_565  A
C148        H151   1.083       .  S
O152       Cu160   1.933       .  S
O152        C162   1.271       .  A
O153       Cu160   1.936   1_545  S
O153        C163   1.271       .  A
O154       Cu160   1.922   1_455  S
O154        C164   1.268   1_565  A
O155       Cu160   1.929       .  S
O155        C165   1.269       .  A
O156       Cu161   2.083       .  S
O156        C165   1.286       .  A
O157       Cu161   2.093   1_455  S
O157        C164   1.286   1_565  A
O158       Cu161   2.080   1_545  S
O158        C163   1.284       .  A
O159       Cu161   2.081       .  S
O159        C162   1.284       .  A
Cu160      Cu161   2.355       .  S
C166        C363   1.480       .  S
C166        C167   1.418   1_554  A
C166        C171   1.419       .  A
C167        C168   1.401       .  A
C167        H172   1.083   1_556  S
C168        C206   1.491       .  S
C168        C169   1.399       .  A
C169        C170   1.401       .  A
C169        H173   1.083       .  S
C170        C234   1.492       .  S
C170        C171   1.402   1_556  A
C171        H174   1.083       .  S
C175        C243   1.473   1_455  S
C175        C176   1.419       .  A
C175        C180   1.414       .  A
C176        C177   1.404       .  A
C176        H181   1.083       .  S
C177        C219   1.496       .  S
C177        C178   1.403       .  A
C178        C179   1.399       .  A
C178        H182   1.083       .  S
C179        C231   1.489       .  S
C179        C180   1.399       .  A
C180        H183   1.084       .  S
C184        C299   1.475       .  S
C184        C185   1.418   1_545  A
C184        C189   1.417   1_545  A
C185        C186   1.403       .  A
C185        H190   1.083   1_565  S
C186        C218   1.495       .  S
C186        C187   1.401       .  A
C187        C188   1.402       .  A
C187        H191   1.082       .  S
C188        C203   1.494       .  S
C188        C189   1.400       .  A
C189        H192   1.084   1_565  S
O193       Cu201   2.088       .  S
O193        C203   1.286       .  A
O194       Cu201   2.089   1_554  S
O194        C204   1.286       .  A
O195       Cu201   2.084   1_545  S
O195        C205   1.284       .  A
O196       Cu201   2.076       .  S
O196        C206   1.284       .  A
O197       Cu202   1.941       .  S
O197        C206   1.272       .  A
O198       Cu202   1.938   1_545  S
O198        C205   1.272       .  A
O199       Cu202   1.937   1_554  S
O199        C204   1.270       .  A
O200       Cu202   1.932       .  S
O200        C203   1.270       .  A
Cu201      Cu202   2.355       .  S
O207       Cu215   1.938       .  S
O207        C217   1.271   1_565  A
O208       Cu215   1.938   1_655  S
O208        C218   1.271       .  A
O209       Cu215   1.933       .  S
O209        C219   1.270       .  A
O210       Cu215   1.936   1_545  S
O210        C220   1.270       .  A
O211       Cu216   2.087   1_545  S
O211        C220   1.286       .  A
O212       Cu216   2.092       .  S
O212        C219   1.286       .  A
O213       Cu216   2.083   1_655  S
O213        C218   1.285       .  A
O214       Cu216   2.077   1_545  S
O214        C217   1.284       .  A
Cu215      Cu216   2.355       .  S
O221       Cu229   1.945   1_556  S
O221        C231   1.272       .  A
O222       Cu229   1.942   1_655  S
O222        C232   1.272       .  A
O223       Cu229   1.939       .  S
O223        C233   1.271       .  A
O224       Cu229   1.937   1_656  S
O224        C234   1.271       .  A
O225       Cu230   2.082   1_656  S
O225        C234   1.285       .  A
O226       Cu230   2.080       .  S
O226        C233   1.285       .  A
O227       Cu230   2.071       .  S
O227        C232   1.283   1_455  A
O228       Cu230   2.071   1_556  S
O228        C231   1.284       .  A
Cu229      Cu230   2.358       .  S
C235        C236   1.407       .  A
C235        C240   1.406   1_455  A
C236        C237   1.397       .  A
C236        H245   1.082       .  S
C237        C238   1.401       .  A
C237        H246   1.085       .  S
C238        C244   1.404       .  A
C238        C239   1.415   1_455  A
C239        C241   1.403       .  A
C239        C240   1.403       .  A
C240        H247   1.086       .  S
C241        C242   1.397       .  A
C241        H248   1.085       .  S
C242        C243   1.403       .  A
C242        H249   1.083       .  S
C243        C244   1.402   1_655  A
C244        H250   1.086       .  S
C251        C252   1.406       .  A
C251        C256   1.406   1_455  A
C252        C253   1.397       .  A
C252        H261   1.083       .  S
C253        C254   1.402       .  A
C253        H262   1.084       .  S
C254        C260   1.403       .  A
C254        C255   1.415   1_455  A
C255        C257   1.402       .  A
C255        C256   1.402       .  A
C256        H263   1.085       .  S
C257        C258   1.396       .  A
C257        H264   1.085       .  S
C258        C259   1.403       .  A
C258        H265   1.083       .  S
C259        C260   1.403   1_655  A
C260        H266   1.086       .  S
C267        C268   1.403       .  A
C267        C272   1.403   1_455  A
C268        C269   1.398       .  A
C268        H277   1.083       .  S
C269        C270   1.403       .  A
C269        H278   1.085       .  S
C270        C276   1.404       .  A
C270        C271   1.415   1_455  A
C271        C273   1.402       .  A
C271        C272   1.404       .  A
C272        H279   1.086       .  S
C273        C274   1.398       .  A
C273        H280   1.084       .  S
C274        C275   1.406       .  A
C274        H281   1.083       .  S
C275        C276   1.407   1_655  A
C276        H282   1.085       .  S
C283        C284   1.407       .  A
C283        C288   1.405   1_655  A
C284        C285   1.399       .  A
C284        H293   1.082       .  S
C285        C286   1.403       .  A
C285        H294   1.085       .  S
C286        C292   1.403       .  A
C286        C287   1.414   1_655  A
C287        C289   1.402       .  A
C287        C288   1.399       .  A
C288        H295   1.085       .  S
C289        C290   1.394       .  A
C289        H296   1.085       .  S
C290        C291   1.400       .  A
C290        H297   1.083       .  S
C291        C292   1.403   1_455  A
C292        H298   1.086       .  S
C299        C300   1.403       .  A
C299        C304   1.402   1_545  A
C300        C301   1.399       .  A
C300        H309   1.083       .  S
C301        C302   1.404       .  A
C301        H310   1.084       .  S
C302        C308   1.406       .  A
C302        C303   1.415   1_545  A
C303        C305   1.400       .  A
C303        C304   1.402       .  A
C304        H311   1.085       .  S
C305        C306   1.395       .  A
C305        H312   1.085       .  S
C306        C307   1.406       .  A
C306        H313   1.082       .  S
C307        C308   1.407   1_565  A
C308        H314   1.085       .  S
C315        C316   1.406       .  A
C315        C320   1.407   1_545  A
C316        C317   1.398       .  A
C316        H325   1.083       .  S
C317        C318   1.402       .  A
C317        H326   1.083       .  S
C318        C324   1.405       .  A
C318        C319   1.414   1_545  A
C319        C321   1.403       .  A
C319        C320   1.403       .  A
C320        H327   1.084       .  S
C321        C322   1.397       .  A
C321        H328   1.084       .  S
C322        C323   1.402       .  A
C322        H329   1.083       .  S
C323        C324   1.403   1_565  A
C324        H330   1.084       .  S
C331        C332   1.406       .  A
C331        C336   1.408   1_565  A
C332        C333   1.396       .  A
C332        H341   1.083       .  S
C333        C334   1.401       .  A
C333        H342   1.084       .  S
C334        C340   1.402       .  A
C334        C335   1.415   1_565  A
C335        C337   1.404       .  A
C335        C336   1.404       .  A
C336        H343   1.084       .  S
C337        C338   1.398       .  A
C337        H344   1.084       .  S
C338        C339   1.401       .  A
C338        H345   1.083       .  S
C339        C340   1.400   1_545  A
C340        H346   1.085       .  S
C347        C348   1.405       .  A
C347        C352   1.407   1_545  A
C348        C349   1.396       .  A
C348        H357   1.082       .  S
C349        C350   1.401       .  A
C349        H358   1.085       .  S
C350        C356   1.401       .  A
C350        C351   1.414   1_545  A
C351        C353   1.404       .  A
C351        C352   1.404       .  A
C352        H359   1.085       .  S
C353        C354   1.398       .  A
C353        H360   1.084       .  S
C354        C355   1.403       .  A
C354        H361   1.083       .  S
C355        C356   1.402   1_565  A
C356        H362   1.086       .  S
C363        C364   1.405       .  A
C363        C368   1.404   1_554  A
C364        C365   1.399       .  A
C364        H373   1.082       .  S
C365        C366   1.403       .  A
C365        H374   1.085       .  S
C366        C372   1.406       .  A
C366        C367   1.415   1_554  A
C367        C369   1.401       .  A
C367        C368   1.402       .  A
C368        H375   1.086       .  S
C369        C370   1.396       .  A
C369        H376   1.085       .  S
C370        C371   1.405       .  A
C370        H377   1.083       .  S
C371        C372   1.405   1_556  A
C372        H378   1.086       .  S
C379        C380   1.405       .  A
C379        C384   1.406   1_554  A
C380        C381   1.396       .  A
C380        H389   1.083       .  S
C381        C382   1.401       .  A
C381        H390   1.084       .  S
C382        C388   1.404       .  A
C382        C383   1.415   1_554  A
C383        C385   1.404       .  A
C383        C384   1.407       .  A
C384        H391   1.085       .  S
C385        C386   1.400       .  A
C385        H392   1.084       .  S
C386        C387   1.405       .  A
C386        H393   1.083       .  S
C387        C388   1.405   1_556  A
C388        H394   1.085       .  S
C395        C396   1.404       .  A
C395        C400   1.404   1_554  A
C396        C397   1.394       .  A
C396        H405   1.083       .  S
C397        C398   1.400       .  A
C397        H406   1.085       .  S
C398        C404   1.400       .  A
C398        C399   1.416   1_554  A
C399        C401   1.403       .  A
C399        C400   1.405       .  A
C400        H407   1.086       .  S
C401        C402   1.399       .  A
C401        H408   1.085       .  S
C402        C403   1.405       .  A
C402        H409   1.082       .  S
C403        C404   1.402   1_556  A
C404        H410   1.086       .  S
C411        C412   1.404   1_554  A
C411        C416   1.407       .  A
C412        C413   1.395       .  A
C412        H421   1.083       .  S
C413        C414   1.401       .  A
C413        H422   1.084       .  S
C414        C420   1.402       .  A
C414        C415   1.415   1_556  A
C415        C417   1.405       .  A
C415        C416   1.408       .  A
C416        H423   1.084       .  S
C417        C418   1.401       .  A
C417        H424   1.083       .  S
C418        C419   1.405       .  A
C418        H425   1.083       .  S
C419        C420   1.404   1_554  A
C420        H426   1.085       .  S
