geometry optimzed in LAMMPS
_audit_creation_date              2020-11-30 
_audit_creation_method            'lammps2cif' 
_symmetry_space_group_name_H-M    'P1' 
_symmetry_Int_Tables_number       1 
_symmetry_cell_setting            triclinic 
loop_ 
_symmetry_equiv_pos_as_xyz 
  x,y,z 
_cell_length_a                    38.50377747 
_cell_length_b                    38.40156601039811 
_cell_length_c                    38.577101705149275 
_cell_angle_alpha                 90.00551045693838 
_cell_angle_beta                  89.73552195265431 
_cell_angle_gamma                 89.37614052886879 
loop_ 
_atom_site_label 
_atom_site_type_symbol 
_atom_site_fract_x 
_atom_site_fract_y 
_atom_site_fract_z 
_atom_site_charge 
C1          C  0.96873880  0.01582834  0.00879434     0.01200
C2          C  0.98744687  0.02843589  0.97919032     0.01200
C3          C  0.01712638  0.00907074  0.96659108     0.01200
C4          C  0.03035451  0.97977126  0.98595142     0.01200
C5          C  0.01123009  0.96704840  0.01536330     0.01200
C6          C  0.98175005  0.98644257  0.02790291     0.01200
O7          O  0.02184587  0.17115543  0.86123376    -0.81200
O8          O  0.97685989  0.32520183  0.85968689    -0.81200
O9          O  0.94509048  0.25262747  0.82236254    -0.81200
O10         O  0.05496212  0.24321017  0.82494944    -0.81200
O11         O  0.92234255  0.28335600  0.86359121    -0.81300
O12         O  0.07639177  0.21348102  0.86740694    -0.81200
O13         O  0.00738193  0.29634458  0.82066152    -0.81200
O14         O  0.99358425  0.20070593  0.82149249    -0.81300
C15         C  0.01071441  0.17435772  0.83045183     1.08500
C16         C  0.98881996  0.32207116  0.82918223     1.08400
C17         C  0.91997881  0.27116746  0.83286750     1.08500
C18         C  0.08000279  0.22571895  0.83689224     1.08400
O19         O  0.04700966  0.24036545  0.93232982    -0.81200
O20         O  0.94979393  0.25648967  0.92990949    -0.81300
O21         O  0.96472738  0.17192424  0.88672817    -0.81200
O22         O  0.03332613  0.32529245  0.88618005    -0.81200
O23         O  0.00188510  0.30431935  0.92768354    -0.81300
O24         O  0.99403095  0.19421373  0.92851481    -0.81200
O25         O  0.07551989  0.27032633  0.89295210    -0.81200
O26         O  0.92204627  0.22692263  0.89003069    -0.81300
Co27       Co  0.03165229  0.20841805  0.89667180     1.51500
Co28       Co  0.96585772  0.28861820  0.89479336     1.51700
Co29       Co  0.96004425  0.21613698  0.85575414     1.51600
Co30       Co  0.03916442  0.28066329  0.85664371     1.51500
O31         O  0.99923021  0.24855406  0.87614837    -1.43200
C32         C  0.07202622  0.25923648  0.92380532     1.08400
C33         C  0.92498160  0.23769244  0.92092561     1.08500
C34         C  0.97645094  0.16915376  0.91755116     1.08400
C35         C  0.02064438  0.32873116  0.91657747     1.08400
O36         O  0.86317446  0.02155603  0.17254532    -0.81200
O37         O  0.86268032  0.97329586  0.32295633    -0.81200
O38         O  0.83174061  0.94269191  0.25248267    -0.81200
O39         O  0.82634290  0.05087437  0.24312585    -0.81200
O40         O  0.87433087  0.91989011  0.28065814    -0.81300
O41         O  0.86772975  0.07581408  0.21532363    -0.81200
O42         O  0.82282622  0.00251935  0.29398899    -0.81200
O43         O  0.82537441  0.98971876  0.20101443    -0.81300
C44         C  0.83298826  0.00878421  0.17581183     1.08500
C45         C  0.83156974  0.98404334  0.31929756     1.08400
C46         C  0.84362303  0.91707067  0.26900989     1.08500
C47         C  0.83695278  0.07726824  0.22728023     1.08400
O48         O  0.93332200  0.04830081  0.24189098    -0.81200
O49         O  0.93836052  0.95427167  0.25640963    -0.81300
O50         O  0.89165928  0.96564411  0.17104735    -0.81200
O51         O  0.88514373  0.03118009  0.32696293    -0.81200
O52         O  0.92949235  0.00463138  0.30485627    -0.81300
O53         O  0.93237164  0.99653264  0.19307470    -0.81200
O54         O  0.89222164  0.07433837  0.27278648    -0.81200
O55         O  0.90122382  0.92461999  0.22509488    -0.81300
Co56       Co  0.89878463  0.03235182  0.20918231     1.51500
Co57       Co  0.90073398  0.96609063  0.28773459     1.51700
Co58       Co  0.86274443  0.95902139  0.21549090     1.51600
Co59       Co  0.85740034  0.03647258  0.28115109     1.51500
O60         O  0.88027773  0.99863615  0.24839028    -1.43200
C61         C  0.92316608  0.07283037  0.26113320     1.08400
C62         C  0.93156247  0.92909192  0.23713620     1.08500
C63         C  0.92177290  0.97859057  0.16804148     1.08400
C64         C  0.91625044  0.02016389  0.33052380     1.08400
C65         C  0.97684015  0.97654196  0.48817447     0.01200
C66         C  0.98799329  0.00423951  0.46562655     0.01200
C67         C  0.01824726  0.02412224  0.47446848     0.01200
C68         C  0.03945807  0.01326162  0.50337409     0.01200
C69         C  0.02884650  0.98474942  0.52514972     0.01200
C70         C  0.99818081  0.96547097  0.51676966     0.01200
O71         O  0.02260650  0.82171803  0.65130422    -0.81200
O72         O  0.97194752  0.67572819  0.65048218    -0.81200
O73         O  0.93961041  0.74638036  0.68102917    -0.81200
O74         O  0.05476310  0.75133447  0.67997536    -0.81200
O75         O  0.91869087  0.71831368  0.63797531    -0.81300
O76         O  0.07639522  0.77897754  0.63689651    -0.81200
O77         O  0.00508256  0.70309095  0.68803318    -0.81200
O78         O  0.98804259  0.79556410  0.68888973    -0.81300
C79         C  0.01075380  0.81761666  0.68201324     1.08500
C80         C  0.98440272  0.67925396  0.68080107     1.08400
C81         C  0.91450443  0.73035205  0.66829487     1.08500
C82         C  0.08053114  0.76611820  0.66684160     1.08400
O83         O  0.04247841  0.75730146  0.57424500    -0.81200
O84         O  0.95304605  0.74184412  0.57527808    -0.81300
O85         O  0.96646066  0.82996129  0.62475460    -0.81200
O86         O  0.02820017  0.66800813  0.62429327    -0.81200
O87         O  0.00184537  0.69168092  0.58162829    -0.81300
O88         O  0.99289665  0.80632717  0.58184871    -0.81200
O89         O  0.06993959  0.72227321  0.61096919    -0.81200
O90         O  0.92396870  0.77546744  0.61219022    -0.81300
Co91       Co  0.03021464  0.78782869  0.61182153     1.51500
Co92       Co  0.96458939  0.71028778  0.61196578     1.51700
Co93       Co  0.95795887  0.78348103  0.65098224     1.51600
Co94       Co  0.03603268  0.71460269  0.65028338     1.51500
O95         O  0.99722360  0.74909343  0.63164609    -1.43200
C96         C  0.06621631  0.73583800  0.58099786     1.08400
C97         C  0.92850668  0.76236743  0.58214595     1.08500
C98         C  0.97798039  0.83288592  0.59395572     1.08400
C99         C  0.01678005  0.66511535  0.59360301     1.08400
O100        O  0.17322059  0.86341347  0.02170692    -0.81200
O101        O  0.32631000  0.85901641  0.97654748    -0.81200
O102        O  0.25361720  0.82229225  0.94507199    -0.81200
O103        O  0.24493537  0.82491568  0.05354061    -0.81200
O104        O  0.28399306  0.86358672  0.92231411    -0.81300
O105        O  0.21511674  0.86755345  0.07555553    -0.81200
O106        O  0.29634582  0.82066699  0.00602232    -0.81200
O107        O  0.20141735  0.82193143  0.99373823    -0.81300
C108        C  0.17586865  0.83213221  0.01151266     1.08500
C109        C  0.32209181  0.82833006  0.98791275     1.08400
C110        C  0.27139321  0.83314433  0.91981706     1.08500
C111        C  0.22673275  0.83641396  0.07833692     1.08400
O112        O  0.24352437  0.93273423  0.04643953    -0.81200
O113        O  0.25708511  0.93019098  0.94870613    -0.81300
O114        O  0.17361037  0.88723423  0.96434118    -0.81200
O115        O  0.32642852  0.88675353  0.03208721    -0.81200
O116        O  0.30499894  0.92843844  0.00100775    -0.81300
O117        O  0.19532280  0.92989978  0.99375018    -0.81200
O118        O  0.27227150  0.89211146  0.07473115    -0.81200
O119        O  0.22733903  0.88969462  0.92184073    -0.81300
Co120      Co  0.21050124  0.89788649  0.03120923     1.51500
Co121      Co  0.28954116  0.89493937  0.96531966     1.51700
Co122      Co  0.21712693  0.85577517  0.95990214     1.51600
Co123      Co  0.28205968  0.85664312  0.03800586     1.51500
O124        O  0.24974890  0.87661264  0.99855482    -1.43200
C125        C  0.26129552  0.92319391  0.07204502     1.08400
C126        C  0.23786708  0.92073572  0.92428509     1.08500
C127        C  0.17080741  0.91840762  0.97546009     1.08400
C128        C  0.32960685  0.91742229  0.01954338     1.08400
O129        O  0.00596169  0.79138773  0.17975036    -0.81200
O130        O  0.99037041  0.69948142  0.17495940    -0.81200
O131        O  0.92201420  0.78414092  0.13263464    -0.81200
O132        O  0.07648056  0.71296490  0.13004524    -0.81200
O133        O  0.94309574  0.75217091  0.17358125    -0.81300
O134        O  0.05350392  0.74026509  0.17300695    -0.81200
O135        O  0.02078254  0.67117964  0.13521869    -0.81200
O136        O  0.97674500  0.82330825  0.14236503    -0.81300
C137        C  0.98748210  0.81740996  0.17296301     1.08500
C138        C  0.00899920  0.67412565  0.16582154     1.08400
C139        C  0.91871208  0.77135079  0.16283208     1.08500
C140        C  0.07943507  0.72422555  0.16104681     1.08400
O141        O  0.07441229  0.77060283  0.10594182    -0.81200
O142        O  0.92243153  0.72833110  0.10485341    -0.81300
O143        O  0.00417042  0.80622155  0.07283620    -0.81200
O144        O  0.99398475  0.69505428  0.06850128    -0.81200
O145        O  0.96372135  0.67239009  0.10959610    -0.81300
O146        O  0.03292594  0.82578008  0.11633921    -0.81200
O147        O  0.04598620  0.74138738  0.06608991    -0.81200
O148        O  0.95145758  0.75962061  0.06677182    -0.81300
Co149      Co  0.03819300  0.77905591  0.14308709     1.51500
Co150      Co  0.95848421  0.71610695  0.14028645     1.51700
Co151      Co  0.96676730  0.78961924  0.10390739     1.51600
Co152      Co  0.03127234  0.70863417  0.10068644     1.51500
O153        O  0.99866677  0.74824799  0.12170401    -1.43200
C154        C  0.07070465  0.76021930  0.07488291     1.08400
C155        C  0.92598111  0.74107804  0.07470219     1.08500
C156        C  0.02188799  0.83044680  0.08556106     1.08400
C157        C  0.97625673  0.66990708  0.07910196     1.08400
C158        C  0.26700302  0.78146671  0.23812115     0.01200
C159        C  0.23906184  0.76893769  0.21613982     0.01200
C160        C  0.21852797  0.73932734  0.22700258     0.01200
C161        C  0.22838940  0.71992004  0.25767182     0.01200
C162        C  0.25595962  0.73267129  0.27956097     0.01200
C163        C  0.27720620  0.76143761  0.26836846     0.01200
O164        O  0.19779058  0.67798804  0.49629729    -0.81200
O165        O  0.29293639  0.68393703  0.50619713    -0.81200
O166        O  0.21951274  0.62924743  0.57869770    -0.81200
O167        O  0.28030428  0.63859937  0.42128764    -0.81200
O168        O  0.24390415  0.67453757  0.55678678    -0.81300
O169        O  0.24793621  0.67913726  0.44399765    -0.81200
O170        O  0.32304189  0.64710262  0.47389730    -0.81200
O171        O  0.17487423  0.63538723  0.52679145    -0.81300
C172        C  0.17456197  0.66668789  0.51635864     1.08500
C173        C  0.31836697  0.67728367  0.48677722     1.08400
C174        C  0.22908138  0.66076234  0.58248508     1.08500
C175        C  0.26652680  0.66874084  0.41880253     1.08400
O176        O  0.22500553  0.61003777  0.42383175    -0.81200
O177        O  0.27735118  0.60720498  0.57240860    -0.81300
O178        O  0.19677757  0.56984277  0.49526804    -0.81200
O179        O  0.30935963  0.57673368  0.49987701    -0.81200
O180        O  0.32900698  0.62004398  0.52924519    -0.81300
O181        O  0.17157704  0.61240900  0.46841905    -0.81200
O182        O  0.25921044  0.57151117  0.44956200    -0.81200
O183        O  0.24914034  0.56677327  0.54386500    -0.81300
Co184      Co  0.21405459  0.64441901  0.46172776     1.51500
Co185      Co  0.28247504  0.64586762  0.53758631     1.51700
Co186      Co  0.21361792  0.60120777  0.53277009     1.51600
Co187      Co  0.28940627  0.60867496  0.46449844     1.51500
O188        O  0.24976039  0.62513314  0.49899458    -1.43200
C189        C  0.23866691  0.57982340  0.42563867     1.08400
C190        C  0.26767985  0.57582394  0.56887871     1.08500
C191        C  0.17042378  0.58098450  0.47907835     1.08400
C192        C  0.33378681  0.58946498  0.51738329     1.08400
C193        C  0.22880244  0.78118602  0.75959509     0.01200
C194        C  0.21909579  0.76023611  0.73024746     0.01200
C195        C  0.24007810  0.73080463  0.71994895     0.01200
C196        C  0.26851657  0.72028221  0.74146105     0.01200
C197        C  0.27847076  0.74098605  0.77061081     0.01200
C198        C  0.25722845  0.77004172  0.78107111     0.01200
O199        O  0.42266637  0.77380969  0.89297260    -0.81200
O200        O  0.57382145  0.72717741  0.88575086    -0.81200
O201        O  0.50431524  0.69428479  0.92086891    -0.81200
O202        O  0.49498879  0.80498166  0.92970737    -0.81200
O203        O  0.53208158  0.67325936  0.87702669    -0.81300
O204        O  0.46408665  0.82870742  0.88916274    -0.81200
O205        O  0.54703253  0.75466894  0.92826819    -0.81200
O206        O  0.45236286  0.74094312  0.92929847    -0.81300
C207        C  0.42677214  0.76007066  0.92265038     1.08500
C208        C  0.57250984  0.73723854  0.91708349     1.08400
C209        C  0.52131204  0.66928591  0.90813096     1.08500
C210        C  0.47639846  0.83041575  0.91969570     1.08400
O211        O  0.49034455  0.80368680  0.82222411    -0.81200
O212        O  0.50389290  0.70885531  0.81431597    -0.81300
O213        O  0.42134008  0.71914802  0.86330899    -0.81200
O214        O  0.57487908  0.78594800  0.86410392    -0.81200
O215        O  0.55093515  0.75998465  0.82089667    -0.81300
O216        O  0.44273690  0.75149351  0.82306389    -0.81200
O217        O  0.52092020  0.82895942  0.86302256    -0.81200
O218        O  0.47549030  0.67761312  0.85244903    -0.81300
Co219      Co  0.45844573  0.78627896  0.85703920     1.51500
Co220      Co  0.53672607  0.72035124  0.85032035     1.51700
Co221      Co  0.46635645  0.71144432  0.89121133     1.51600
Co222      Co  0.53127422  0.78993932  0.89568979     1.51500
O223        O  0.49817176  0.75216940  0.87373031    -1.43200
C224        C  0.50927897  0.82806599  0.83236041     1.08400
C225        C  0.48613851  0.68283049  0.82169682     1.08500
C226        C  0.41782967  0.73342381  0.83372996     1.08400
C227        C  0.57627108  0.77690187  0.83230164     1.08400
C228        C  0.73932754  0.26664266  0.72036371     0.01200
C229        C  0.76863779  0.27825826  0.74016666     0.01200
C230        C  0.78047655  0.25868033  0.76976686     0.01200
C231        C  0.75997444  0.23005411  0.78249739     0.01200
C232        C  0.73018022  0.21872831  0.76283685     0.01200
C233        C  0.71872549  0.23804305  0.73267707     0.01200
O234        O  0.89207513  0.42142737  0.77054528    -0.81200
O235        O  0.89233242  0.57254527  0.72778948    -0.81200
O236        O  0.92253212  0.50311926  0.69303753    -0.81200
O237        O  0.92489724  0.49151684  0.80542706    -0.81200
O238        O  0.88034082  0.53337208  0.67231833    -0.81300
O239        O  0.88295780  0.46249453  0.82728289    -0.81200
O240        O  0.93036696  0.54205442  0.75795069    -0.81200
O241        O  0.92904229  0.45045294  0.73791382    -0.81300
C242        C  0.92227015  0.42563691  0.75772009     1.08500
C243        C  0.92304789  0.56732153  0.73884554     1.08400
C244        C  0.91079499  0.52093952  0.66838963     1.08500
C245        C  0.91348581  0.47450890  0.83071991     1.08400
O246        O  0.81806930  0.48803831  0.79705655    -0.81200
O247        O  0.81616728  0.50922352  0.70511620    -0.81300
O248        O  0.86410582  0.42011129  0.71431968    -0.81200
O249        O  0.86641219  0.57665908  0.78441411    -0.81200
O250        O  0.82331682  0.55550889  0.75693241    -0.81300
O251        O  0.82227906  0.44108889  0.74518856    -0.81200
O252        O  0.85616035  0.52005659  0.82514169    -0.81200
O253        O  0.85326740  0.47711151  0.67483581    -0.81300
Co254      Co  0.85453404  0.45689656  0.78185482     1.51500
Co255      Co  0.85366512  0.53893156  0.71869617     1.51700
Co256      Co  0.89159033  0.46579384  0.70862924     1.51600
Co257      Co  0.89360786  0.52941785  0.78961759     1.51500
O258        O  0.87319436  0.49760464  0.74978792    -1.43200
C259        C  0.82571861  0.50798048  0.82146394     1.08400
C260        C  0.82309443  0.49011331  0.67968738     1.08500
C261        C  0.83374508  0.41642122  0.72680707     1.08400
C262        C  0.83552786  0.58089376  0.77325528     1.08400
O263        O  0.00944180  0.20340856  0.32053956    -0.81200
O264        O  0.98944324  0.29572630  0.32373699    -0.81200
O265        O  0.92333886  0.21290445  0.37034337    -0.81200
O266        O  0.07742605  0.28346046  0.36781357    -0.81200
O267        O  0.94411342  0.24335627  0.32873392    -0.81300
O268        O  0.05459142  0.25552408  0.32583254    -0.81200
O269        O  0.02097801  0.32435210  0.36161738    -0.81200
O270        O  0.97972178  0.17243926  0.35830565    -0.81300
C271        C  0.99083263  0.17792041  0.32769407     1.08500
C272        C  0.00824071  0.32091006  0.33148049     1.08400
C273        C  0.91930853  0.22581396  0.34018871     1.08500
C274        C  0.08015239  0.27192380  0.33698843     1.08400
O275        O  0.07738906  0.22610011  0.39283466    -0.81200
O276        O  0.92542987  0.26873610  0.39864874    -0.81300
O277        O  0.00801531  0.19011371  0.42715920    -0.81200
O278        O  0.99594045  0.30303012  0.43034513    -0.81200
O279        O  0.96501906  0.32513742  0.38958205    -0.81300
O280        O  0.03689049  0.17057227  0.38337196    -0.81200
O281        O  0.04871140  0.25587219  0.43276540    -0.81200
O282        O  0.95557516  0.23610028  0.43501130    -0.81300
Co283      Co  0.04102612  0.21690124  0.35648319     1.51500
Co284      Co  0.95956570  0.28010327  0.36064523     1.51700
Co285      Co  0.96972717  0.20651366  0.39708221     1.51600
Co286      Co  0.03266137  0.28803521  0.39757787     1.51500
O287        O  0.00072447  0.24787942  0.37820779    -1.43200
C288        C  0.07421979  0.23743789  0.42368470     1.08400
C289        C  0.93067261  0.25626369  0.42874548     1.08500
C290        C  0.02584878  0.16585518  0.41416819     1.08400
C291        C  0.97831368  0.32847550  0.41953632     1.08400
C292        C  0.23023131  0.28010414  0.24404574     0.01200
C293        C  0.21966388  0.25942939  0.27315691     0.01200
C294        C  0.24052415  0.23003342  0.28362074     0.01200
C295        C  0.27058089  0.21998802  0.26351712     0.01200
C296        C  0.28200284  0.24134781  0.23506184     0.01200
C297        C  0.26025110  0.26992969  0.22397485     0.01200
O298        O  0.20119984  0.32364002  0.00560620    -0.81200
O299        O  0.29347864  0.31550702  0.99461493    -0.81200
O300        O  0.22508918  0.37611113  0.92234431    -0.81200
O301        O  0.27801430  0.36572354  0.08283176    -0.81200
O302        O  0.24752654  0.32968400  0.94430883    -0.81300
O303        O  0.24826337  0.32465313  0.05988263    -0.81200
O304        O  0.32136162  0.34966665  0.03099146    -0.81200
O305        O  0.17848253  0.36516584  0.97257598    -0.81300
C306        C  0.17888092  0.33391207  0.98389607     1.08500
C307        C  0.31544876  0.31972469  0.01795237     1.08400
C308        C  0.23434430  0.34452347  0.91844791     1.08500
C309        C  0.26425414  0.33604353  0.08591007     1.08400
O310        O  0.22389630  0.39613919  0.07480555    -0.81200
O311        O  0.28308658  0.39656142  0.93319749    -0.81300
O312        O  0.19658671  0.43193712  0.00574002    -0.81200
O313        O  0.31255637  0.42161596  0.00315280    -0.81200
O314        O  0.33391364  0.37741424  0.97645827    -0.81300
O315        O  0.17168283  0.38872197  0.03053099    -0.81200
O316        O  0.26181469  0.43136154  0.04978344    -0.81200
O317        O  0.25143359  0.43593776  0.96124534    -0.81300
Co318      Co  0.21499765  0.35861902  0.03934016     1.51500
Co319      Co  0.28612330  0.35554559  0.96541127     1.51700
Co320      Co  0.21627515  0.40116805  0.96897642     1.51600
Co321      Co  0.29024642  0.39176580  0.03819330     1.51500
O322        O  0.25174702  0.37652213  0.00307602    -1.43200
C323        C  0.23870547  0.42560997  0.07188985     1.08400
C324        C  0.27253779  0.42783190  0.93770610     1.08500
C325        C  0.16997695  0.42016113  0.02051080     1.08400
C326        C  0.33820939  0.40808896  0.98792816     1.08400
C327        C  0.23905332  0.27418450  0.78175685     0.01200
C328        C  0.21875341  0.24403570  0.77285842     0.01200
C329        C  0.22922563  0.22255240  0.74376941     0.01200
C330        C  0.25791107  0.23228115  0.72192609     0.01200
C331        C  0.27822321  0.26201533  0.73118267     0.01200
C332        C  0.26801833  0.28361820  0.76000983     0.01200
O333        O  0.57406059  0.27170574  0.61297563    -0.81200
O334        O  0.42256734  0.22721728  0.60671862    -0.81200
O335        O  0.49558099  0.19453694  0.57355803    -0.81200
O336        O  0.50414442  0.30544053  0.57799649    -0.81200
O337        O  0.46464919  0.17121786  0.61352740    -0.81300
O338        O  0.53128099  0.32660225  0.62160903    -0.81200
O339        O  0.45187203  0.25923880  0.56966808    -0.81200
O340        O  0.54718991  0.24179514  0.57251048    -0.81300
C341        C  0.57188528  0.26033863  0.58215381     1.08500
C342        C  0.42624464  0.24068176  0.57689734     1.08400
C343        C  0.47876858  0.16855153  0.58365058     1.08500
C344        C  0.52025112  0.33064487  0.59071862     1.08400
O345        O  0.50350795  0.29223073  0.68449529    -0.81200
O346        O  0.48808768  0.20137918  0.67976097    -0.81300
O347        O  0.57603392  0.21365107  0.63701036    -0.81200
O348        O  0.41975974  0.28318215  0.63487826    -0.81200
O349        O  0.44162915  0.25241519  0.67578714    -0.81300
O350        O  0.55259864  0.24167087  0.67936134    -0.81200
O351        O  0.47430356  0.32296252  0.64605494    -0.81200
O352        O  0.52014660  0.17240432  0.64197412    -0.81300
Co353      Co  0.53677207  0.28001606  0.64877608     1.51500
Co354      Co  0.45764129  0.21595679  0.64349137     1.51700
Co355      Co  0.53157671  0.20904761  0.60683004     1.51600
Co356      Co  0.46568406  0.28913700  0.60752580     1.51500
O357        O  0.49799698  0.24847568  0.62633904    -1.43200
C358        C  0.48510382  0.31804515  0.67676951     1.08400
C359        C  0.50713146  0.17613633  0.67204118     1.08500
C360        C  0.57882864  0.22573687  0.66764315     1.08400
C361        C  0.41635908  0.26994269  0.66489600     1.08400
O362        O  0.31809426  0.01019876  0.20381360    -0.81200
O363        O  0.32266850  0.99481831  0.29950489    -0.81200
O364        O  0.36264688  0.92485055  0.21388260    -0.81200
O365        O  0.36697784  0.07772380  0.28440898    -0.81200
O366        O  0.32228796  0.94604311  0.24729518    -0.81300
O367        O  0.32364365  0.05622249  0.25651987    -0.81200
O368        O  0.36416951  0.02324996  0.32581018    -0.81200
O369        O  0.35635830  0.98068679  0.17287809    -0.81300
C370        C  0.32564199  0.99195248  0.17794806     1.08500
C371        C  0.33320181  0.01251737  0.32460251     1.08400
C372        C  0.33278514  0.92143111  0.22797918     1.08500
C373        C  0.33570102  0.08090790  0.27405067     1.08400
O374        O  0.38991121  0.07821484  0.22676720    -0.81200
O375        O  0.39067836  0.92402739  0.26955270    -0.81300
O376        O  0.42511061  0.00582967  0.19326427    -0.81200
O377        O  0.43094668  0.99587394  0.30191387    -0.81200
O378        O  0.38943910  0.96584080  0.32475348    -0.81300
O379        O  0.38288759  0.03672097  0.17251196    -0.81200
O380        O  0.43129797  0.04889750  0.25337801    -0.81200
O381        O  0.42945561  0.95205994  0.23854467    -0.81300
Co382      Co  0.35423657  0.04164477  0.21789711     1.51500
Co383      Co  0.35669625  0.96151306  0.28216585     1.51700
Co384      Co  0.39307570  0.96886941  0.20815469     1.51600
Co385      Co  0.39764276  0.03324897  0.28759461     1.51500
O386        O  0.37536883  0.00116356  0.24898417    -1.43200
C387        C  0.42132426  0.07475024  0.23594487     1.08400
C388        C  0.42092129  0.92662471  0.25690727     1.08500
C389        C  0.41368603  0.02464915  0.16906401     1.08400
C390        C  0.42046662  0.97722241  0.32681625     1.08400
C391        C  0.49481088  0.02999627  0.51528123     0.01200
C392        C  0.47566829  0.01894883  0.48505600     0.01200
C393        C  0.48765287  0.98938013  0.46488082     0.01200
C394        C  0.51631010  0.96851796  0.47733629     0.01200
C395        C  0.53595710  0.97991110  0.50701237     0.01200
C396        C  0.52380095  0.00926901  0.52736123     0.01200
O397        O  0.45618225  0.75712446  0.43547599    -0.81200
O398        O  0.55404398  0.74207470  0.42633100    -0.81200
O399        O  0.46638989  0.67199260  0.38845841    -0.81200
O400        O  0.53126110  0.82624821  0.37943738    -0.81200
O401        O  0.50026974  0.69331365  0.42767036    -0.81300
O402        O  0.50669703  0.80477360  0.42488244    -0.81200
O403        O  0.57301070  0.77311499  0.38260324    -0.81200
O404        O  0.42474853  0.72622624  0.39964852    -0.81300
C405        C  0.43079177  0.73787183  0.42986757     1.08500
C406        C  0.57645140  0.76197491  0.41305126     1.08400
C407        C  0.48148932  0.66854663  0.41751677     1.08500
C408        C  0.52304521  0.82956911  0.41131265     1.08400
O409        O  0.47278735  0.82396428  0.35929648    -0.81200
O410        O  0.52063333  0.67315645  0.35772588    -0.81300
O411        O  0.43774422  0.75289351  0.32904995    -0.81200
O412        O  0.55196776  0.74374783  0.31798401    -0.81200
O413        O  0.57582013  0.71490478  0.35984464    -0.81300
O414        O  0.41869837  0.78235699  0.37273555    -0.81200
O415        O  0.49905756  0.79359619  0.31810288    -0.81200
O416        O  0.48577639  0.70084309  0.32135137    -0.81300
Co417      Co  0.46673458  0.78843122  0.39730843     1.51500
Co418      Co  0.53401323  0.70955047  0.39257570     1.51700
Co419      Co  0.45725864  0.71617081  0.35982775     1.51600
Co420      Co  0.53481104  0.78087763  0.35043340     1.51500
O421        O  0.49842520  0.74856009  0.37529981    -1.43200
C422        C  0.48184013  0.81972597  0.32781627     1.08400
C423        C  0.50610100  0.67611579  0.32832122     1.08500
C424        C  0.41335699  0.77075848  0.34218576     1.08400
C425        C  0.57819966  0.72702474  0.32929904     1.08400
O426        O  0.56479998  0.95813270  0.74177408    -0.81200
O427        O  0.56754832  0.04912474  0.75810309    -0.81200
O428        O  0.61153464  0.96872297  0.82774025    -0.81200
O429        O  0.61394427  0.03617379  0.67208287    -0.81200
O430        O  0.56985884  0.99955786  0.80661111    -0.81300
O431        O  0.57072343  0.00808410  0.69340118    -0.81200
O432        O  0.60633134  0.07779826  0.72742838    -0.81200
O433        O  0.60228233  0.92771694  0.77283667    -0.81300
C434        C  0.57179271  0.93321844  0.76139345     1.08500
C435        C  0.57563664  0.07392413  0.73896908     1.08400
C436        C  0.58114189  0.98165580  0.83143048     1.08500
C437        C  0.58328081  0.02475376  0.66831085     1.08400
O438        O  0.63809820  0.97790991  0.67402161    -0.81200
O439        O  0.63904942  0.02450984  0.82591983    -0.81300
O440        O  0.67175183  0.94508763  0.74581161    -0.81200
O441        O  0.67447608  0.05582624  0.75421072    -0.81200
O442        O  0.63265953  0.07907820  0.78364705    -0.81300
O443        O  0.62922192  0.92407946  0.71687747    -0.81200
O444        O  0.67786517  0.00784656  0.70181704    -0.81200
O445        O  0.67707167  0.99225447  0.79715003    -0.81300
Co446      Co  0.60140093  0.97013902  0.71018006     1.51500
Co447      Co  0.60286305  0.03495381  0.78989921     1.51700
Co448      Co  0.64021820  0.96192950  0.78268393     1.51600
Co449      Co  0.64251678  0.04097285  0.71711225     1.51500
O450        O  0.62186365  0.00201852  0.74989747    -1.43200
C451        C  0.66906134  0.98828856  0.67731237     1.08400
C452        C  0.66941691  0.01186895  0.82202074     1.08500
C453        C  0.65976499  0.92002629  0.72899226     1.08400
C454        C  0.66348909  0.08128138  0.77178854     1.08400
C455        C  0.48154392  0.01118921  0.03290126     0.01200
C456        C  0.46983721  0.98132242  0.01363091     0.01200
C457        C  0.49022649  0.96900529  0.98468288     0.01200
C458        C  0.51920484  0.98917221  0.97215418     0.01200
C459        C  0.53065224  0.01907989  0.99145989     0.01200
C460        C  0.51081673  0.03116543  0.02098462     0.01200
O461        O  0.45288049  0.25201072  0.07266508    -0.81200
O462        O  0.54720884  0.26419786  0.06767952    -0.81200
O463        O  0.47291263  0.33395713  0.12364733    -0.81200
O464        O  0.53439939  0.17574997  0.11131513    -0.81200
O465        O  0.49762332  0.31194717  0.07861042    -0.81300
O466        O  0.50309176  0.19933401  0.07123886    -0.81200
O467        O  0.57687390  0.22976894  0.10264129    -0.81200
O468        O  0.42953926  0.28230580  0.11534382    -0.81300
C469        C  0.42868880  0.27093649  0.08461800     1.08500
C470        C  0.57172046  0.24342092  0.07299871     1.08400
C471        C  0.48240601  0.33756828  0.09216005     1.08500
C472        C  0.52041105  0.17325311  0.08161126     1.08400
O473        O  0.47862270  0.17861354  0.13989348    -0.81200
O474        O  0.52992780  0.32689723  0.14612091    -0.81300
O475        O  0.44730170  0.24953872  0.18049149    -0.81200
O476        O  0.56103278  0.25424347  0.17354502    -0.81200
O477        O  0.58276346  0.28434629  0.13192444    -0.81300
O478        O  0.42499585  0.22316800  0.13651633    -0.81200
O479        O  0.51284773  0.20357224  0.17821579    -0.81200
O480        O  0.50065603  0.29737647  0.18535707    -0.81300
Co481      Co  0.46846281  0.21687620  0.10565215     1.51500
Co482      Co  0.53619625  0.29340296  0.10664770     1.51700
Co483      Co  0.46643132  0.28734434  0.15024991     1.51600
Co484      Co  0.54299527  0.21910918  0.14125183     1.51500
O485        O  0.50336394  0.25388763  0.12592130    -1.43200
C486        C  0.49179977  0.18028599  0.17000196     1.08400
C487        C  0.51930606  0.32262757  0.17706795     1.08500
C488        C  0.42185885  0.23318289  0.16781851     1.08400
C489        C  0.58635434  0.27109608  0.16191711     1.08400
O490        O  0.17798708  0.14126488  0.47871346    -0.81200
O491        O  0.32830115  0.14305068  0.52399759    -0.81200
O492        O  0.25680983  0.17534247  0.55742835    -0.81200
O493        O  0.24724908  0.17338214  0.44601946    -0.81200
O494        O  0.28619621  0.13352440  0.58001980    -0.81300
O495        O  0.21950834  0.13100128  0.42376315    -0.81200
O496        O  0.29853555  0.17989052  0.49144774    -0.81200
O497        O  0.20613821  0.18008429  0.50954623    -0.81300
C498        C  0.18141369  0.17199099  0.49033850     1.08500
C499        C  0.32357815  0.17313095  0.51084668     1.08400
C500        C  0.27272924  0.16382992  0.58342028     1.08500
C501        C  0.23100436  0.16175611  0.42058408     1.08400
O502        O  0.24493568  0.06684536  0.45691518    -0.81200
O503        O  0.26317757  0.06812925  0.54848622    -0.81300
O504        O  0.17519473  0.11529766  0.53517292    -0.81200
O505        O  0.33167277  0.11534285  0.46742282    -0.81200
O506        O  0.31165412  0.07319448  0.49788961    -0.81300
O507        O  0.19919825  0.07306875  0.50755108    -0.81200
O508        O  0.27609908  0.10424552  0.42706252    -0.81200
O509        O  0.23012887  0.10651373  0.57608106    -0.81300
Co510      Co  0.21383977  0.10372054  0.46977214     1.51500
Co511      Co  0.29378854  0.10515322  0.53440418     1.51700
Co512      Co  0.22027001  0.14370382  0.54102240     1.51600
Co513      Co  0.28533564  0.14262858  0.46140928     1.51500
O514        O  0.25349581  0.12373989  0.50170036    -1.43200
C515        C  0.26419866  0.07384519  0.43193830     1.08400
C516        C  0.24314158  0.07609877  0.57294240     1.08500
C517        C  0.17305288  0.08451616  0.52337184     1.08400
C518        C  0.33609134  0.08485640  0.47970518     1.08400
C519        C  0.76876473  0.78472288  0.25584231     0.01200
C520        C  0.78014566  0.76323238  0.22738061     0.01200
C521        C  0.75964495  0.73414208  0.21682174     0.01200
C522        C  0.73058985  0.72396138  0.23791998     0.01200
C523        C  0.71831076  0.74594090  0.26581398     0.01200
C524        C  0.73880058  0.77536692  0.27614021     0.01200
O525        O  0.61248151  0.57452883  0.28064615    -0.81200
O526        O  0.60883023  0.43247637  0.21991564    -0.81200
O527        O  0.58096732  0.50247355  0.19271183    -0.81200
O528        O  0.58170816  0.50422624  0.30955981    -0.81200
O529        O  0.62454713  0.47632046  0.16901235    -0.81300
O530        O  0.62641050  0.52801503  0.33186243    -0.81200
O531        O  0.57241640  0.45960810  0.25577272    -0.81200
O532        O  0.57463321  0.54880656  0.24621385    -0.81300
C533        C  0.58208192  0.57192968  0.26795676     1.08500
C534        C  0.57872937  0.43650894  0.23352920     1.08400
C535        C  0.59371678  0.48767214  0.16638399     1.08500
C536        C  0.59543847  0.51767629  0.33579932     1.08400
O537        O  0.68868843  0.50705352  0.29435412    -0.81200
O538        O  0.68802633  0.49543113  0.20435549    -0.81300
O539        O  0.63759501  0.58240994  0.22334129    -0.81200
O540        O  0.63413671  0.42026530  0.27546446    -0.81200
O541        O  0.67858154  0.44143300  0.24963916    -0.81300
O542        O  0.68136250  0.55968113  0.24961079    -0.81200
O543        O  0.65157077  0.47117286  0.31966123    -0.81200
O544        O  0.65069445  0.53158482  0.17914147    -0.81300
Co545      Co  0.65127576  0.53905509  0.28560654     1.51500
Co546      Co  0.64950774  0.46484449  0.21440434     1.51700
Co547      Co  0.61147084  0.53776783  0.21363086     1.51600
Co548      Co  0.61071527  0.46748678  0.28693601     1.51500
O549        O  0.63103426  0.50233923  0.25022097    -1.43200
C550        C  0.68226317  0.48301949  0.31518537     1.08400
C551        C  0.68106610  0.51815255  0.18191291     1.08500
C552        C  0.66851662  0.58520979  0.23370257     1.08400
C553        C  0.66447448  0.41541321  0.26334152     1.08400
C554        C  0.78103963  0.23564864  0.27314592     0.01200
C555        C  0.77151805  0.21554628  0.24299010     0.01200
C556        C  0.74192870  0.22559565  0.22241583     0.01200
C557        C  0.72076604  0.25456724  0.23345862     0.01200
C558        C  0.73051486  0.27526363  0.26291315     0.01200
C559        C  0.75967083  0.26478198  0.28405510     0.01200
C560        C  0.77275256  0.73637589  0.72604635     0.01200
C561        C  0.75280115  0.76565097  0.71350001     0.01200
C562        C  0.72290020  0.77811465  0.73266114     0.01200
C563        C  0.71096520  0.75847188  0.76216483     0.01200
C564        C  0.73075253  0.72859653  0.77447758     0.01200
C565        C  0.76078423  0.71654271  0.75522232     0.01200
O566        O  0.17393656  0.01235472  0.79902896    -0.81200
O567        O  0.18531710  0.99993920  0.70902303    -0.81200
O568        O  0.12966454  0.92443922  0.77864035    -0.81200
O569        O  0.12911074  0.08358253  0.71735925    -0.81200
O570        O  0.17563832  0.94654747  0.75585932    -0.81300
O571        O  0.17027897  0.06231601  0.74860174    -0.81200
O572        O  0.14851833  0.03058528  0.67720040    -0.81200
O573        O  0.13450582  0.97779241  0.82256732    -0.81300
C574        C  0.16497023  0.99037134  0.82150032     1.08500
C575        C  0.17918715  0.01978864  0.68396208     1.08400
C576        C  0.16142049  0.92074419  0.77035909     1.08500
C577        C  0.15848770  0.08764318  0.73144301     1.08400
O578        O  0.09802056  0.07625168  0.77082682    -0.81200
O579        O  0.11170509  0.93154323  0.71919237    -0.81300
O580        O  0.06683370  0.00525090  0.80021058    -0.81200
O581        O  0.07984018  0.99758993  0.68772108    -0.81200
O582        O  0.12631469  0.97372394  0.66792283    -0.81300
O583        O  0.10709373  0.03443356  0.82517663    -0.81200
O584        O  0.06517258  0.04694668  0.73435430    -0.81200
O585        O  0.06808605  0.95532121  0.74813461    -0.81300
Co586      Co  0.13734511  0.04311895  0.78262611     1.51500
Co587      Co  0.14875263  0.96666170  0.71630680     1.51700
Co588      Co  0.10052175  0.96925680  0.78397375     1.51600
Co589      Co  0.10603691  0.03649460  0.70744762     1.51500
O590        O  0.12316296  0.00379225  0.74790546    -1.43200
C591        C  0.06900340  0.07075594  0.75603864     1.08400
C592        C  0.08027366  0.93144747  0.72902747     1.08500
C593        C  0.07694991  0.02159287  0.82659586     1.08400
C594        C  0.09471747  0.98233335  0.66303076     1.08400
O595        O  0.74205296  0.42981626  0.54895069    -0.81200
O596        O  0.75490583  0.42632424  0.45030352    -0.81200
O597        O  0.82604807  0.38813451  0.53580174    -0.81200
O598        O  0.67339608  0.38060330  0.46955536    -0.81200
O599        O  0.80387371  0.42842768  0.50291413    -0.81300
O600        O  0.69599326  0.42384562  0.49645893    -0.81200
O601        O  0.72640548  0.38325750  0.42710637    -0.81200
O602        O  0.77188969  0.39138022  0.57887925    -0.81300
C603        C  0.75962582  0.42189705  0.57506091     1.08500
C604        C  0.73737502  0.41401405  0.42583775     1.08400
C605        C  0.82831556  0.41851257  0.52253974     1.08500
C606        C  0.67034662  0.41182537  0.48067361     1.08400
O607        O  0.67472840  0.35693485  0.52609754    -0.81200
O608        O  0.82796972  0.36025516  0.47989930    -0.81300
O609        O  0.74859850  0.32232475  0.55843032    -0.81200
O610        O  0.75641273  0.31824772  0.45005019    -0.81200
O611        O  0.78481569  0.35998943  0.42573424    -0.81300
O612        O  0.71637407  0.36389504  0.57937259    -0.81200
O613        O  0.70519979  0.31630015  0.49948543    -0.81200
O614        O  0.80119396  0.32044797  0.51059423    -0.81300
Co615      Co  0.71081056  0.39332190  0.53471059     1.51500
Co616      Co  0.78918684  0.39320986  0.46809338     1.51700
Co617      Co  0.78393523  0.35584843  0.54237978     1.51600
Co618      Co  0.71840582  0.35029225  0.46518702     1.51500
O619        O  0.75080894  0.37337158  0.50254373    -1.43200
C620        C  0.67900712  0.32560872  0.51652220     1.08400
C621        C  0.82634381  0.32968294  0.49208067     1.08500
C622        C  0.72928570  0.33333255  0.58266926     1.08400
C623        C  0.77315836  0.32899749  0.42399295     1.08400
C624        C  0.03087608  0.51709051  0.49241304     0.01200
C625        C  0.01051623  0.52846002  0.52198873     0.01200
C626        C  0.98013958  0.50929359  0.53209715     0.01200
C627        C  0.96764921  0.48140282  0.51084954     0.01200
C628        C  0.98851300  0.46908869  0.48219244     0.01200
C629        C  0.01904227  0.48806602  0.47193656     0.01200
O630        O  0.82519079  0.64341805  0.01961105    -0.81200
O631        O  0.67643940  0.65104278  0.97481919    -0.81200
O632        O  0.74691634  0.68004160  0.94032110    -0.81200
O633        O  0.75668439  0.67834720  0.05419618    -0.81200
O634        O  0.71632999  0.63857180  0.91949088    -0.81300
O635        O  0.78376304  0.63401757  0.07512617    -0.81200
O636        O  0.70634780  0.68733371  0.00724940    -0.81200
O637        O  0.79731048  0.68292222  0.98838806    -0.81300
C638        C  0.82170590  0.67429742  0.00799612     1.08500
C639        C  0.68195715  0.68142893  0.98694932     1.08400
C640        C  0.72940588  0.66851233  0.91553837     1.08500
C641        C  0.77290979  0.66518519  0.07926150     1.08400
O642        O  0.75639685  0.57106422  0.04225065    -0.81200
O643        O  0.73993558  0.57307278  0.94957402    -0.81300
O644        O  0.82788486  0.61760105  0.96270491    -0.81200
O645        O  0.67189531  0.62367189  0.03035790    -0.81200
O646        O  0.69293583  0.58026211  0.00182666    -0.81300
O647        O  0.80414289  0.57579205  0.99054380    -0.81200
O648        O  0.72614082  0.61050296  0.07136255    -0.81200
O649        O  0.77271957  0.61047273  0.92125192    -0.81300
Co650      Co  0.78899742  0.60682844  0.02875862     1.51500
Co651      Co  0.70984320  0.61109318  0.96467155     1.51700
Co652      Co  0.78304048  0.64722291  0.95680988     1.51600
Co653      Co  0.71837612  0.64920896  0.03715813     1.51500
O654        O  0.75010877  0.62873490  0.99679446    -1.43200
C655        C  0.73740483  0.57948908  0.06745027     1.08400
C656        C  0.75961245  0.58039792  0.92458966     1.08500
C657        C  0.83010105  0.58658278  0.97408713     1.08400
C658        C  0.66793071  0.59298098  0.01878129     1.08400
C659        C  0.52117777  0.49709926  0.03252598     0.01200
C660        C  0.53172758  0.52428505  0.00929369     0.01200
C661        C  0.51112279  0.53285424  0.97952368     0.01200
C662        C  0.48156551  0.51169275  0.97132372     0.01200
C663        C  0.47151609  0.48379225  0.99420356     0.01200
C664        C  0.49215035  0.47552347  0.02408903     0.01200
O665        O  0.79840316  0.17508002  0.01076973    -0.81200
O666        O  0.70225165  0.17742255  0.99760048    -0.81200
O667        O  0.78356111  0.13436094  0.92464583    -0.81200
O668        O  0.71645681  0.12928894  0.07951949    -0.81200
O669        O  0.75353896  0.17591190  0.94816589    -0.81300
O670        O  0.74636160  0.17150225  0.05848805    -0.81200
O671        O  0.67375928  0.13712910  0.02587426    -0.81200
O672        O  0.82631588  0.13602935  0.97910710    -0.81300
C673        C  0.82314430  0.16661478  0.99112164     1.08500
C674        C  0.67651553  0.16818994  0.01523844     1.08400
C675        C  0.77109062  0.16528729  0.92249802     1.08500
C676        C  0.72874978  0.15984622  0.08334416     1.08400
O677        O  0.77206780  0.10143889  0.07713654    -0.81200
O678        O  0.72654119  0.10934424  0.92492538    -0.81300
O679        O  0.80413596  0.06772763  0.00305937    -0.81200
O680        O  0.69551583  0.07024448  0.99578083    -0.81200
O681        O  0.67237459  0.11321515  0.96820535    -0.81300
O682        O  0.82630183  0.10799970  0.03482410    -0.81200
O683        O  0.74219732  0.06399370  0.04666978    -0.81200
O684        O  0.75600081  0.06803992  0.95161795    -0.81300
Co685      Co  0.78264906  0.13872457  0.04176128     1.51500
Co686      Co  0.71681762  0.14328424  0.96333746     1.51700
Co687      Co  0.78893303  0.10203875  0.96775990     1.51600
Co688      Co  0.71049736  0.10080710  0.03393673     1.51500
O689        O  0.74982483  0.12137221  0.00162039    -1.43200
C690        C  0.76053848  0.07095569  0.07224535     1.08400
C691        C  0.73748746  0.07816776  0.92689513     1.08500
C692        C  0.82897048  0.07769683  0.02158156     1.08400
C693        C  0.66992074  0.08201344  0.97931953     1.08400
O694        O  0.35531783  0.52883510  0.68050943    -0.81200
O695        O  0.36059378  0.47342032  0.82461277    -0.81200
O696        O  0.32750639  0.44394549  0.75671027    -0.81200
O697        O  0.32664756  0.55897640  0.75073349    -0.81200
O698        O  0.37232209  0.42084501  0.78088177    -0.81300
O699        O  0.36992572  0.58074800  0.72319629    -0.81200
O700        O  0.32130010  0.50742641  0.79933842    -0.81200
O701        O  0.31783846  0.49541535  0.70829125    -0.81300
C702        C  0.32488682  0.51643321  0.68433766     1.08500
C703        C  0.33002070  0.48634753  0.82273680     1.08400
C704        C  0.34102104  0.41779984  0.77131109     1.08500
C705        C  0.33918347  0.58435105  0.73443429     1.08400
O706        O  0.43355372  0.54534521  0.74423567    -0.81200
O707        O  0.43421680  0.45639588  0.75539197    -0.81300
O708        O  0.38007909  0.47192386  0.67183826    -0.81200
O709        O  0.38489436  0.53050217  0.83142033    -0.81200
O710        O  0.42804764  0.50382901  0.80745008    -0.81300
O711        O  0.42440192  0.49747524  0.69328789    -0.81200
O712        O  0.39655650  0.57341411  0.77861351    -0.81200
O713        O  0.39532253  0.42892062  0.72374173    -0.81300
Co714      Co  0.39537822  0.53480401  0.71359963     1.51500
Co715      Co  0.39813259  0.46689574  0.78878989     1.51700
Co716      Co  0.35576187  0.46333488  0.71851733     1.51600
Co717      Co  0.35776525  0.53930479  0.78661469     1.51500
O718        O  0.37652644  0.50109986  0.75194424    -1.43200
C719        C  0.42678220  0.56939629  0.76532240     1.08400
C720        C  0.42624750  0.43249712  0.73489164     1.08500
C721        C  0.41080541  0.48266839  0.66772537     1.08400
C722        C  0.41561637  0.51867260  0.83385772     1.08400
O723        O  0.78131269  0.89874614  0.42693633    -0.81200
O724        O  0.73075621  0.88538773  0.57485599    -0.81200
O725        O  0.69871988  0.92490939  0.50677462    -0.81200
O726        O  0.81263602  0.92657093  0.49962271    -0.81200
O727        O  0.67765968  0.87914328  0.53103869    -0.81300
O728        O  0.83428481  0.88563176  0.46744547    -0.81200
O729        O  0.76182691  0.92700540  0.55059946    -0.81200
O730        O  0.74916566  0.93538410  0.45762450    -0.81300
C731        C  0.76917731  0.92919761  0.43258721     1.08500
C732        C  0.74127317  0.91664672  0.57383525     1.08400
C733        C  0.67336704  0.91065481  0.52174900     1.08500
C734        C  0.83746234  0.91547014  0.48101294     1.08400
O735        O  0.80386518  0.81967367  0.48767308    -0.81200
O736        O  0.71001168  0.81712293  0.50158011    -0.81300
O737        O  0.72604242  0.87284773  0.41979362    -0.81200
O738        O  0.78836988  0.86061447  0.57615420    -0.81200
O739        O  0.76099504  0.81905600  0.55093737    -0.81300
O740        O  0.75368211  0.82846866  0.43986208    -0.81200
O741        O  0.83136212  0.85620681  0.52195894    -0.81200
O742        O  0.68318649  0.85897532  0.47239056    -0.81300
Co743      Co  0.78994717  0.85834272  0.45900439     1.51500
Co744      Co  0.72321216  0.85110804  0.53620042     1.51700
Co745      Co  0.71779209  0.89731966  0.46739953     1.51600
Co746      Co  0.79503287  0.89232527  0.53378419     1.51500
O747        O  0.75644962  0.87483122  0.49925912    -1.43200
C748        C  0.82836983  0.82651847  0.50771920     1.08400
C749        C  0.68702371  0.82705635  0.48062600     1.08500
C750        C  0.73806002  0.84214700  0.41481158     1.08400
C751        C  0.77721444  0.82959979  0.57714954     1.08400
O752        O  0.06637980  0.54718747  0.25933106    -0.81200
O753        O  0.06547680  0.45204612  0.24656681    -0.81200
O754        O  0.10897833  0.53212679  0.17388869    -0.81200
O755        O  0.11374586  0.46633126  0.32897934    -0.81200
O756        O  0.06704648  0.50238671  0.19623134    -0.81300
O757        O  0.07131225  0.49589711  0.30730755    -0.81200
O758        O  0.10579982  0.42342790  0.27548361    -0.81200
O759        O  0.10494216  0.57508708  0.22778249    -0.81300
C760        C  0.07437069  0.57164745  0.23950760     1.08500
C761        C  0.07467783  0.42685056  0.26512484     1.08400
C762        C  0.07808411  0.52068182  0.17134195     1.08500
C763        C  0.08316944  0.47887008  0.33252727     1.08400
O764        O  0.13946402  0.52296402  0.32621540    -0.81200
O765        O  0.13447217  0.47450415  0.17500940    -0.81300
O766        O  0.17380564  0.55510065  0.25219614    -0.81200
O767        O  0.17280155  0.44440607  0.24555026    -0.81200
O768        O  0.13046653  0.42085760  0.21849572    -0.81300
O769        O  0.13230374  0.57713696  0.28346470    -0.81200
O770        O  0.17804751  0.49220331  0.29680209    -0.81200
O771        O  0.17480530  0.50446394  0.20168377    -0.81300
Co772      Co  0.10273549  0.53269851  0.29060444     1.51500
Co773      Co  0.10005935  0.46572015  0.21276892     1.51700
Co774      Co  0.14020322  0.53800526  0.21715143     1.51600
Co775      Co  0.14202023  0.46003411  0.28358778     1.51500
O776        O  0.12117949  0.49925069  0.25100204    -1.43200
C777        C  0.17018218  0.51147549  0.32190379     1.08400
C778        C  0.16522036  0.48577069  0.17688095     1.08500
C779        C  0.16266201  0.58026848  0.27039894     1.08400
C780        C  0.16150332  0.41831543  0.22979332     1.08400
C781        C  0.52173753  0.50696478  0.47142674     0.01200
C782        C  0.49325539  0.52935431  0.48171156     0.01200
C783        C  0.47159593  0.51982786  0.51046795     0.01200
C784        C  0.48172832  0.49140821  0.53243975     0.01200
C785        C  0.51093246  0.46957028  0.52328912     0.01200
C786        C  0.53157604  0.47812255  0.49332759     0.01200
C787        C  0.01456215  0.50880409  0.03211903     0.01200
C788        C  0.02766098  0.47939463  0.01251061     0.01200
C789        C  0.00829572  0.46691769  0.98297977     0.01200
C790        C  0.97861310  0.48648428  0.97023230     0.01200
C791        C  0.96700898  0.51707294  0.98888715     0.01200
C792        C  0.98588446  0.52900537  0.01876368     0.01200
C793        C  0.03036273  0.50005073  0.13081684    -0.10200
C794        C  0.05747029  0.52357192  0.13746484     0.06000
C795        C  0.06601951  0.54672069  0.10995209    -0.04000
C796        C  0.05264487  0.54169436  0.07596410    -0.08500
C797        C  0.02796402  0.51578146  0.06881900     0.05100
C798        C  0.01491615  0.49716700  0.09770175    -0.03500
Br799      Br  0.97465741  0.46844640  0.09369062    -0.03200
H800        H  0.02124082  0.48328632  0.15142183     0.09000
H801        H  0.06155096  0.55823882  0.05510071     0.07000
Br802      Br  0.09564864  0.58587185  0.11730913    -0.03600
C803        C  0.45524942  0.50725020  0.62702231    -0.10200
C804        C  0.42892289  0.48268357  0.63286340     0.06000
C805        C  0.41999771  0.46063911  0.60478199    -0.04000
C806        C  0.43774790  0.46299356  0.57265267    -0.08500
C807        C  0.46400579  0.48762223  0.56721509     0.05100
C808        C  0.47223171  0.51012536  0.59486571    -0.03500
Br809      Br  0.50641607  0.54589916  0.59002106    -0.03200
H810        H  0.46234087  0.52508498  0.64749282     0.09000
H811        H  0.43065262  0.44583086  0.55163250     0.07000
Br812      Br  0.38407891  0.42662072  0.60842405    -0.03600
C813        C  0.42558070  0.54294973  0.89403805    -0.10200
C814        C  0.43431204  0.51822598  0.86824296     0.06000
C815        C  0.45864171  0.49171630  0.87721047    -0.04000
C816        C  0.47290349  0.49028314  0.91070467    -0.08500
C817        C  0.46436660  0.51500098  0.93628708     0.05100
C818        C  0.44040503  0.54166703  0.92750237    -0.03500
Br819      Br  0.42589753  0.57610765  0.96056163    -0.03200
H820        H  0.40681078  0.56331894  0.88826806     0.09000
H821        H  0.49124789  0.46961542  0.91683406     0.07000
Br822      Br  0.47260255  0.45513539  0.84598625    -0.03600
C823        C  0.89364417  0.57853312  0.95561843    -0.10200
C824        C  0.86406759  0.56567474  0.97319198     0.06000
C825        C  0.86892029  0.53447515  0.99252437    -0.04000
C826        C  0.90218384  0.51927490  0.99609553    -0.08500
C827        C  0.93189638  0.53353599  0.98072001     0.05100
C828        C  0.92714798  0.56328708  0.95967684    -0.03500
Br829      Br  0.96578109  0.58454297  0.93684769    -0.03200
H830        H  0.89088876  0.60093461  0.93892178     0.09000
H831        H  0.90510185  0.49648946  0.01239052     0.07000
Br832      Br  0.83190912  0.51067203  0.01580172    -0.03600
C833        C  0.62914647  0.54356190  0.00013375    -0.10200
C834        C  0.63341063  0.57415159  0.02001800     0.06000
C835        C  0.60378573  0.58667985  0.03834341    -0.04000
C836        C  0.57107919  0.57102728  0.03403671    -0.08500
C837        C  0.56694335  0.54099897  0.01371785     0.05100
C838        C  0.59688018  0.52668940  0.99774328    -0.03500
Br839      Br  0.59497209  0.48360629  0.97268448    -0.03200
H840        H  0.65107032  0.53251961  0.98613150     0.09000
H841        H  0.54882545  0.58243800  0.04695988     0.07000
Br842      Br  0.60612074  0.62319954  0.07186144    -0.03600
C843        C  0.02184983  0.50300765  0.40880720    -0.10200
C844        C  0.03440732  0.48225557  0.43603216     0.06000
C845        C  0.06141271  0.45823515  0.42821835    -0.04000
C846        C  0.07514304  0.45575432  0.39409401    -0.08500
C847        C  0.06401421  0.47819844  0.36716292     0.05100
C848        C  0.03664236  0.50204645  0.37535505    -0.03500
Br849      Br  0.01948049  0.53670757  0.34365164    -0.03200
H850        H  0.00090415  0.52134570  0.41403050     0.09000
H851        H  0.09556386  0.43684999  0.38894473     0.07000
Br852      Br  0.08182788  0.42965238  0.46348172    -0.03600
C853        C  0.59416174  0.47158606  0.50956242    -0.10200
C854        C  0.56674684  0.46066216  0.48853015     0.06000
C855        C  0.57417379  0.43520401  0.46305173    -0.04000
C856        C  0.60824488  0.42127109  0.45929288    -0.08500
C857        C  0.63562060  0.43114311  0.48140733     0.05100
C858        C  0.62787923  0.45737456  0.50648634    -0.03500
Br859      Br  0.66114689  0.47495074  0.53891500    -0.03200
H860        H  0.58923774  0.49166118  0.52874839     0.09000
H861        H  0.61314045  0.40200849  0.43933808     0.07000
Br862      Br  0.53826608  0.41764383  0.43388869    -0.03600
C863        C  0.86886618  0.46613548  0.50089960    -0.10200
C864        C  0.86198378  0.43918005  0.52482421     0.06000
C865        C  0.88942285  0.43025786  0.54778230    -0.04000
C866        C  0.92349678  0.44278875  0.54228708    -0.08500
C867        C  0.93090043  0.46768263  0.51658585     0.05100
C868        C  0.90219048  0.48125623  0.49793080    -0.03500
Br869      Br  0.90671049  0.52234376  0.47007016    -0.03200
H870        H  0.84828901  0.47555282  0.48419766     0.09000
H871        H  0.94416718  0.43303393  0.55850386     0.07000
Br872      Br  0.88220011  0.40124844  0.58747056    -0.03600
C873        C  0.78837385  0.80460587  0.67323232    -0.10200
C874        C  0.76141356  0.78050013  0.67803135     0.06000
C875        C  0.74502628  0.76777337  0.64791189    -0.04000
C876        C  0.75140749  0.78294027  0.61525045    -0.08500
C877        C  0.77644824  0.80907045  0.61072292     0.05100
C878        C  0.79715993  0.81726986  0.63985622    -0.03500
Br879      Br  0.83887781  0.84390240  0.63520754    -0.03200
H880        H  0.80319277  0.81313170  0.69536309     0.09000
H881        H  0.73633136  0.77430949  0.59329901     0.07000
Br882      Br  0.71509400  0.72815070  0.64955332    -0.03600
C883        C  0.75131583  0.72573824  0.83600137    -0.10200
C884        C  0.72641220  0.71545066  0.81151469     0.06000
C885        C  0.70096183  0.69151586  0.82295216    -0.04000
C886        C  0.70128488  0.67860386  0.85723493    -0.08500
C887        C  0.72726954  0.68748669  0.88108568     0.05100
C888        C  0.75227213  0.71200469  0.86992861    -0.03500
Br889      Br  0.79042293  0.72614057  0.89830586    -0.03200
H890        H  0.77129059  0.74380394  0.82814707     0.09000
H891        H  0.68150014  0.66028484  0.86497326     0.07000
Br892      Br  0.66600607  0.67285307  0.79375294    -0.03600
C893        C  0.71782599  0.16093602  0.14843745    -0.10200
C894        C  0.72770914  0.17891715  0.11818907     0.06000
C895        C  0.73956243  0.21355449  0.12294800    -0.04000
C896        C  0.74266364  0.22803026  0.15660509    -0.08500
C897        C  0.73523660  0.20888240  0.18693454     0.05100
C898        C  0.72193710  0.17493951  0.18209468    -0.03500
Br899      Br  0.70863724  0.14569351  0.21989395    -0.03200
H900        H  0.70736699  0.13522855  0.14605516     0.09000
H901        H  0.75215910  0.25435280  0.15916673     0.07000
Br902      Br  0.75186004  0.24313497  0.08480553    -0.03600
C903        C  0.79396868  0.32035929  0.36128046    -0.10200
C904        C  0.77347331  0.30881024  0.38960804     0.06000
C905        C  0.74953783  0.28174728  0.38226113    -0.04000
C906        C  0.74538995  0.26891977  0.34811832    -0.08500
C907        C  0.76507749  0.28109613  0.31987427     0.05100
C908        C  0.78991328  0.30699199  0.32711190    -0.03500
Br909      Br  0.81723876  0.32672843  0.29066215    -0.03200
H910        H  0.81226449  0.34116446  0.36532907     0.09000
H911        H  0.72648574  0.24876264  0.34358277     0.07000
Br912      Br  0.72001414  0.26148678  0.41690563    -0.03600
C913        C  0.73449948  0.46958960  0.39336780    -0.10200
C914        C  0.73245615  0.43308264  0.39370469     0.06000
C915        C  0.72446986  0.41512281  0.36272366    -0.04000
C916        C  0.71497770  0.43370306  0.33395966    -0.08500
C917        C  0.70998638  0.46924007  0.33611599     0.05100
C918        C  0.72307202  0.48795768  0.36429206    -0.03500
Br919      Br  0.72393139  0.53784026  0.36447979    -0.03200
H920        H  0.74243232  0.48372748  0.41619756     0.01800
H921        H  0.70761575  0.42014102  0.31174467     0.07000
Br922      Br  0.72026545  0.36576586  0.35673453    -0.03600
C923        C  0.69722875  0.51128783  0.12159029    -0.10200
C924        C  0.70558493  0.52449987  0.15432252     0.06000
C925        C  0.73188689  0.54910528  0.15786392    -0.04000
C926        C  0.74451371  0.56521027  0.12827733    -0.08500
C927        C  0.73241943  0.55531031  0.09557792     0.05100
C928        C  0.71137296  0.52605599  0.09196097    -0.03500
Br929      Br  0.69861225  0.50769568  0.04774350    -0.03200
H930        H  0.67776397  0.49127842  0.11900615     0.09000
H931        H  0.76220829  0.58681298  0.13085321     0.07000
Br932      Br  0.74991316  0.56279545  0.20187137    -0.03600
C933        C  0.56389480  0.46685546  0.07295209    -0.10200
C934        C  0.53918790  0.49342775  0.06707442     0.06000
C935        C  0.53219771  0.51717578  0.09429986    -0.04000
C936        C  0.54951858  0.51414732  0.12619516    -0.08500
C937        C  0.57461899  0.48790158  0.13223068     0.05100
C938        C  0.58160062  0.46401286  0.10490691    -0.03500
Br939      Br  0.61419841  0.42625294  0.10980133    -0.03200
H940        H  0.56961916  0.44833431  0.05248047     0.09000
H941        H  0.54356789  0.53296391  0.14633690     0.07000
Br942      Br  0.49814230  0.55388144  0.08974132    -0.03600
C943        C  0.54088337  0.51020930  0.37263584    -0.10200
C944        C  0.57669426  0.51784585  0.37089147     0.06000
C945        C  0.59378248  0.52271508  0.40315261    -0.04000
C946        C  0.57548892  0.52068854  0.43497187    -0.08500
C947        C  0.54000027  0.51250883  0.43659325     0.05100
C948        C  0.52287676  0.50722243  0.40460966    -0.03500
Br949      Br  0.47537803  0.49280727  0.40311354    -0.03200
H950        H  0.52677722  0.50553754  0.34889447     0.09000
H951        H  0.58955394  0.52456499  0.45885103     0.07000
Br952      Br  0.64276853  0.52912841  0.40678429    -0.03600
C953        C  0.72932743  0.33876681  0.24792094    -0.10200
C954        C  0.71434431  0.31133833  0.26665111     0.06000
C955        C  0.68287674  0.31850791  0.28445784    -0.04000
C956        C  0.66724505  0.35206485  0.28301239    -0.08500
C957        C  0.68223741  0.37970157  0.26412294     0.05100
C958        C  0.71390884  0.37222374  0.24635085    -0.03500
Br959      Br  0.73734809  0.40548854  0.21768163    -0.03200
H960        H  0.75299359  0.33377681  0.23336041     0.09000
H961        H  0.64318586  0.35654528  0.29703498     0.07000
Br962      Br  0.66035192  0.28378453  0.31172811    -0.03600
C963        C  0.75101362  0.77538034  0.33999771    -0.10200
C964        C  0.73423788  0.79155680  0.31192813     0.06000
C965        C  0.71737046  0.82385100  0.31846709    -0.04000
C966        C  0.71850070  0.83947748  0.35175481    -0.08500
C967        C  0.73599190  0.82362178  0.37984959     0.05100
C968        C  0.75207816  0.79066076  0.37326382    -0.03500
Br969      Br  0.77749625  0.76477720  0.40760625    -0.03200
H970        H  0.76442395  0.75078918  0.33571383     0.09000
H971        H  0.70557291  0.86437345  0.35559085     0.07000
Br972      Br  0.69167573  0.84760279  0.28329501    -0.03600
C973        C  0.78940419  0.68953127  0.17598632    -0.10200
C974        C  0.76564647  0.71731840  0.18129956     0.06000
C975        C  0.74712204  0.72923569  0.15196629    -0.04000
C976        C  0.75072773  0.71266878  0.11946086    -0.08500
C977        C  0.77351605  0.68409372  0.11411595     0.05100
C978        C  0.79395162  0.67357668  0.14293819    -0.03500
Br979      Br  0.83003767  0.63910104  0.13834028    -0.03200
H980        H  0.80460300  0.68007124  0.19755932     0.09000
H981        H  0.73490516  0.72208573  0.09822863     0.07000
Br982      Br  0.71588948  0.76825872  0.15487721    -0.03600
C983        C  0.71021174  0.62859721  0.25830128    -0.10200
C984        C  0.68738972  0.61931201  0.23154486     0.06000
C985        C  0.68177284  0.64377627  0.20462335    -0.04000
C986        C  0.69542320  0.67769872  0.20689656    -0.08500
C987        C  0.71664291  0.68749478  0.23475568     0.05100
C988        C  0.72534723  0.66174035  0.25956270    -0.03500
Br989      Br  0.75896336  0.67001173  0.29514393    -0.03200
H990        H  0.71611609  0.61007434  0.27867506     0.09000
H991        H  0.68953935  0.69637905  0.18671851     0.07000
Br992      Br  0.65755508  0.63142027  0.16315427    -0.03600
C993        C  0.20079362  0.00963383  0.62590668    -0.10200
C994        C  0.20579355  0.02511059  0.65836308     0.06000
C995        C  0.23158309  0.05002825  0.66306723    -0.04000
C996        C  0.24741149  0.06393456  0.63402546    -0.08500
C997        C  0.23824411  0.05217427  0.60101835     0.05100
C998        C  0.21761119  0.02271282  0.59695836    -0.03500
Br999      Br  0.20811733  0.00257652  0.55257507    -0.03200
H1000       H  0.18168482  0.98938357  0.62266730     0.09000
H1001       H  0.26445657  0.08602401  0.63695558     0.07000
Br1002     Br  0.24357056  0.06836878  0.70743851    -0.03600
C1003       C  0.51192989  0.38370837  0.19116107    -0.10200
C1004       C  0.52422855  0.35071898  0.20112906     0.06000
C1005       C  0.54686504  0.34702207  0.22912128    -0.04000
C1006       C  0.56220165  0.37663751  0.24234949    -0.08500
C1007       C  0.55382951  0.40938994  0.22852813     0.05100
C1008       C  0.52626232  0.41338708  0.20536848    -0.03500
Br1009     Br  0.50964323  0.45803908  0.19030910    -0.03200
H1010       H  0.49322228  0.38634159  0.17043584     0.09000
H1011       H  0.58265443  0.37386639  0.26138174     0.07000
Br1012     Br  0.56070257  0.30248213  0.24698012    -0.03600
C1013       C  0.58685695  0.20373542  0.02829653    -0.10200
C1014       C  0.59478096  0.23435074  0.04512899     0.06000
C1015       C  0.62863062  0.24747856  0.04413026    -0.04000
C1016       C  0.65542187  0.22643484  0.03149274    -0.08500
C1017       C  0.64809795  0.19248097  0.02089780     0.05100
C1018       C  0.61332039  0.18192289  0.01755608    -0.03500
Br1019     Br  0.59900037  0.13730409  0.00271170    -0.03200
H1020       H  0.56039123  0.19456481  0.02782551     0.09000
H1021       H  0.68197649  0.23541698  0.03268732     0.07000
Br1022     Br  0.63932816  0.29260540  0.06158371    -0.03600
C1023       C  0.49539049  0.41008579  0.02376981    -0.10200
C1024       C  0.48694946  0.44062279  0.04224708     0.06000
C1025       C  0.47358147  0.43637620  0.07630456    -0.04000
C1026       C  0.47115555  0.40290974  0.09145594    -0.08500
C1027       C  0.48093257  0.37239584  0.07338692     0.05100
C1028       C  0.49196924  0.37661861  0.03839277    -0.03500
Br1029     Br  0.50201489  0.33814052  0.00799371    -0.03200
H1030       H  0.50478971  0.41229521  0.99735354     0.09000
H1031       H  0.46166093  0.40087035  0.11781491     0.07000
Br1032     Br  0.45648995  0.47449947  0.10338879    -0.03600
C1033       C  0.68149720  0.28690862  0.19079510    -0.10200
C1034       C  0.68602847  0.26083317  0.21608676     0.06000
C1035       C  0.65696846  0.24048221  0.22481453    -0.04000
C1036       C  0.62529597  0.24483236  0.20729676    -0.08500
C1037       C  0.62063678  0.27016392  0.18119635     0.05100
C1038       C  0.64920754  0.29213919  0.17397932    -0.03500
Br1039     Br  0.64524240  0.33153380  0.14385210    -0.03200
H1040       H  0.70309808  0.30355329  0.18431909     0.09000
H1041       H  0.60405637  0.22791916  0.21427650     0.07000
Br1042     Br  0.65850668  0.20696256  0.26162183    -0.03600
C1043       C  0.59424291  0.02171536  0.00537387    -0.10200
C1044       C  0.56668764  0.03375126  0.98475020     0.06000
C1045       C  0.57450690  0.05909122  0.95936452    -0.04000
C1046       C  0.60887605  0.07175840  0.95546062    -0.08500
C1047       C  0.63586599  0.06199186  0.97843520     0.05100
C1048       C  0.62778438  0.03596520  0.00341299    -0.03500
Br1049     Br  0.65966418  0.02035498  0.03850568    -0.03200
H1050       H  0.58921464  0.00162057  0.02438796     0.09000
H1051       H  0.61375056  0.09163777  0.93618728     0.07000
Br1052     Br  0.53857175  0.07991136  0.93195715    -0.03600
C1053       C  0.54249051  0.11115054  0.07431442    -0.10200
C1054       C  0.52078237  0.13840717  0.06236471     0.06000
C1055       C  0.49781829  0.13001207  0.03490181    -0.04000
C1056       C  0.49599620  0.09554584  0.02185232    -0.08500
C1057       C  0.51633429  0.06794937  0.03526769     0.05100
C1058       C  0.54010888  0.07659718  0.06182848    -0.03500
Br1059     Br  0.56912439  0.04283158  0.08410279    -0.03200
H1060       H  0.56117014  0.11652318  0.09442699     0.09000
H1061       H  0.47776479  0.09004295  0.00131472     0.07000
Br1062     Br  0.46716784  0.16374444  0.01427287    -0.03600
C1063       C  0.71894790  0.04557857  0.83865000    -0.10200
C1064       C  0.69529515  0.01996380  0.84725176     0.06000
C1065       C  0.69252172  0.00780528  0.88146947    -0.04000
C1066       C  0.70937377  0.02537405  0.90771918    -0.08500
C1067       C  0.72915956  0.05437175  0.89949761     0.05100
C1068       C  0.73617071  0.06279684  0.86472363    -0.03500
Br1069     Br  0.76793163  0.09774307  0.85102918    -0.03200
H1070       H  0.72212702  0.05389241  0.81199514     0.09000
H1071       H  0.70505582  0.01799021  0.93451161     0.07000
Br1072     Br  0.66603976  0.96809002  0.89368718    -0.03600
C1073       C  0.70957771  0.96905532  0.59151121    -0.10200
C1074       C  0.72991223  0.94032090  0.60087494     0.06000
C1075       C  0.73470996  0.93202407  0.63608983    -0.04000
C1076       C  0.71747690  0.95114111  0.66135864    -0.08500
C1077       C  0.69427074  0.97730749  0.65176450     0.05100
C1078       C  0.69102093  0.98719614  0.61679071    -0.03500
Br1079     Br  0.65990672  0.02322084  0.60185952    -0.03200
H1080       H  0.70582580  0.97551119  0.56442255     0.09000
H1081       H  0.71989937  0.94356393  0.68831190     0.07000
Br1082     Br  0.76205169  0.89364246  0.65165958    -0.03600
C1083       C  0.72130920  0.84172504  0.74928656    -0.10200
C1084       C  0.70876471  0.81529005  0.72745804     0.06000
C1085       C  0.68152710  0.82500478  0.70452112    -0.04000
C1086       C  0.66729211  0.85913003  0.70463902    -0.08500
C1087       C  0.67894538  0.88513307  0.72731837     0.05100
C1088       C  0.70693465  0.87583536  0.74963526    -0.03500
Br1089     Br  0.72578184  0.90720778  0.78331118    -0.03200
H1090       H  0.74189122  0.83537220  0.76735043     0.09000
H1091       H  0.64618971  0.86515845  0.68709496     0.07000
Br1092     Br  0.66092041  0.79375958  0.67259656    -0.03600
C1093       C  0.57695516  0.96157503  0.89376318    -0.10200
C1094       C  0.56160953  0.97960345  0.86591924     0.06000
C1095       C  0.52982376  0.99752636  0.87320979    -0.04000
C1096       C  0.51589281  0.99822058  0.90730164    -0.08500
C1097       C  0.53344031  0.98305269  0.93564479     0.05100
C1098       C  0.56458351  0.96462727  0.92813503    -0.03500
Br1099     Br  0.59351195  0.94511610  0.96330350    -0.03200
H1100       H  0.59968396  0.94565172  0.88900607     0.09000
H1101       H  0.49180188  0.01231244  0.91202899     0.07000
Br1102     Br  0.50384325  0.02218685  0.83844523    -0.03600
C1103       C  0.52671143  0.58920082  0.29443025    -0.10200
C1104       C  0.55644373  0.59842847  0.27585997     0.06000
C1105       C  0.56219698  0.63345742  0.26687000    -0.04000
C1106       C  0.54018169  0.65905637  0.27948159    -0.08500
C1107       C  0.51405525  0.65027251  0.30258657     0.05100
C1108       C  0.50548325  0.61523662  0.30829406    -0.03500
Br1109     Br  0.46708595  0.60208223  0.33692540    -0.03200
H1110       H  0.52162273  0.56214274  0.30041382     0.09000
H1111       H  0.54630617  0.68614510  0.27484106     0.07000
Br1112     Br  0.60102036  0.64936259  0.24074718    -0.03600
C1113       C  0.65997441  0.80651623  0.42909845    -0.10200
C1114       C  0.66389215  0.80250272  0.46450435     0.06000
C1115       C  0.64185278  0.78014457  0.48307190    -0.04000
C1116       C  0.61356698  0.76535317  0.46592656    -0.08500
C1117       C  0.60857994  0.77169719  0.43039275     0.05100
C1118       C  0.63424663  0.79009822  0.41149598    -0.03500
Br1119     Br  0.63693062  0.79697224  0.36188302    -0.03200
H1120       H  0.67574990  0.82443770  0.41486647     0.09000
H1121       H  0.59492646  0.75026696  0.48051501     0.07000
Br1122     Br  0.64733343  0.77189817  0.53174873    -0.03600
C1123       C  0.45956649  0.57493305  0.44669774    -0.10200
C1124       C  0.48931699  0.56528561  0.46568585     0.06000
C1125       C  0.51451136  0.59118158  0.47139027    -0.04000
C1126       C  0.51108408  0.62446780  0.45629916    -0.08500
C1127       C  0.48198530  0.63383820  0.43618694     0.05100
C1128       C  0.45540883  0.60880397  0.43283596    -0.03500
Br1129     Br  0.41143978  0.62028294  0.41259044    -0.03200
H1130       H  0.43910688  0.55622064  0.44302729     0.09000
H1131       H  0.53155910  0.64313962  0.46029364     0.07000
Br1132     Br  0.55327958  0.58313356  0.50154836    -0.03600
C1133       C  0.61837239  0.74827831  0.28087957    -0.10200
C1134       C  0.61351282  0.72742456  0.31063713     0.06000
C1135       C  0.64402962  0.71124890  0.32445040    -0.04000
C1136       C  0.67745092  0.71818565  0.31054789    -0.08500
C1137       C  0.68220927  0.73979247  0.28149741     0.05100
C1138       C  0.65174506  0.75399032  0.26627727    -0.03500
Br1139     Br  0.65431747  0.78196496  0.22532247    -0.03200
H1140       H  0.59611289  0.76100903  0.26916918     0.09000
H1141       H  0.69990502  0.70641477  0.32268214     0.07000
Br1142     Br  0.64258700  0.67864076  0.36213404    -0.03600
C1143       C  0.57376206  0.92828271  0.52611529    -0.10200
C1144       C  0.57111914  0.96306869  0.51486484     0.06000
C1145       C  0.60257867  0.98096655  0.50898408    -0.04000
C1146       C  0.63510012  0.96412700  0.51333607    -0.08500
C1147       C  0.63795224  0.92880369  0.52316155     0.05100
C1148       C  0.60628859  0.91118616  0.53015131    -0.03500
Br1149     Br  0.60467459  0.86306618  0.54335485    -0.03200
H1150       H  0.55021847  0.91387753  0.53093578     0.09000
H1151       H  0.65840804  0.97861548  0.50759983     0.07000
Br1152     Br  0.60276751  0.02785946  0.49186943    -0.03600
C1153       C  0.41046708  0.01629986  0.49068859    -0.10200
C1154       C  0.43970944  0.03432687  0.47847719     0.06000
C1155       C  0.43367081  0.06695784  0.46262662    -0.04000
C1156       C  0.39969181  0.08134713  0.46090590    -0.08500
C1157       C  0.37072964  0.06510240  0.47634224     0.05100
C1158       C  0.37670895  0.03125320  0.49035835    -0.03500
Br1159     Br  0.34041961  0.00330514  0.50974087    -0.03200
H1160       H  0.41417492  0.99080926  0.50222037     0.09000
H1161       H  0.39611612  0.10584437  0.44781890     0.07000
Br1162     Br  0.47088708  0.09331332  0.44322494    -0.03600
C1163       C  0.55877147  0.04391907  0.57258682    -0.10200
C1164       C  0.53810893  0.01497590  0.56394914     0.06000
C1165       C  0.52988198  0.99182934  0.59127044    -0.04000
C1166       C  0.54361988  0.99633042  0.62484545    -0.08500
C1167       C  0.56539151  0.02438485  0.63319992     0.05100
C1168       C  0.57149110  0.04916507  0.60669278    -0.03500
Br1169     Br  0.59473281  0.09200013  0.61636872    -0.03200
H1170       H  0.56516358  0.06274272  0.55283899     0.09000
H1171       H  0.53763765  0.97711907  0.64447704     0.07000
Br1172     Br  0.49892217  0.95376554  0.58451860    -0.03600
C1173       C  0.54839924  0.92365268  0.43867678    -0.10200
C1174       C  0.52161707  0.93204618  0.46247718     0.06000
C1175       C  0.49896128  0.90498764  0.47214593    -0.04000
C1176       C  0.50101149  0.87203553  0.45622500    -0.08500
C1177       C  0.52612413  0.86396937  0.43069900     0.05100
C1178       C  0.55122474  0.88992766  0.42347298    -0.03500
Br1179     Br  0.59129347  0.87995899  0.39529756    -0.03200
H1180       H  0.56722100  0.94331020  0.43194816     0.09000
H1181       H  0.48195429  0.85276917  0.46340855     0.07000
Br1182     Br  0.46428196  0.91167670  0.50741540    -0.03600
C1183       C  0.47211811  0.90684621  0.28658736    -0.10200
C1184       C  0.44533880  0.89918356  0.26393818     0.06000
C1185       C  0.43648669  0.86447711  0.25696974    -0.04000
C1186       C  0.45099950  0.83806330  0.27658160    -0.08500
C1187       C  0.47390838  0.84635805  0.30295793     0.05100
C1188       C  0.48640824  0.88049523  0.30651164    -0.03500
Br1189     Br  0.52116186  0.89358613  0.33876556    -0.03200
H1190       H  0.47924848  0.93363826  0.29148543     0.09000
H1191       H  0.44238788  0.81150652  0.27306453     0.07000
Br1192     Br  0.40283604  0.85178603  0.22337509    -0.03600
C1193       C  0.47505112  0.09342469  0.20800420    -0.10200
C1194       C  0.44537450  0.10205922  0.22722189     0.06000
C1195       C  0.43675216  0.13722670  0.23363650    -0.04000
C1196       C  0.45569136  0.16315940  0.21787878    -0.08500
C1197       C  0.48226789  0.15434914  0.19501631     0.05100
C1198       C  0.49351672  0.11958456  0.19151342    -0.03500
Br1199     Br  0.53246768  0.10652273  0.16335581    -0.03200
H1200       H  0.48214356  0.06639322  0.20353456     0.09000
H1201       H  0.44771376  0.19008680  0.22118737     0.07000
Br1202     Br  0.39831460  0.15210039  0.26137503    -0.03600
C1203       C  0.30421824  0.02986151  0.41493075    -0.10200
C1204       C  0.27327872  0.04685601  0.40813436     0.06000
C1205       C  0.25765719  0.04486427  0.37544780    -0.04000
C1206       C  0.27640780  0.03001000  0.34821799    -0.08500
C1207       C  0.31064100  0.01880293  0.35394333     0.05100
C1208       C  0.32383657  0.01722503  0.38791657    -0.03500
Br1209     Br  0.36970173  0.00346647  0.39996929    -0.03200
H1210       H  0.31522127  0.03049828  0.44060905     0.09000
H1211       H  0.26568017  0.03038653  0.32229682     0.07000
Br1212     Br  0.21255675  0.06442847  0.36674860    -0.03600
C1213       C  0.43988813  0.04328146  0.07381825    -0.10200
C1214       C  0.46633334  0.01822832  0.06846930     0.06000
C1215       C  0.47875678  0.99996964  0.09776688    -0.04000
C1216       C  0.46222865  0.00361401  0.13015888    -0.08500
C1217       C  0.43390843  0.02667603  0.13527213     0.05100
C1218       C  0.42463823  0.04843954  0.10696997    -0.03500
Br1219     Br  0.39467972  0.08812304  0.11283709    -0.03200
H1220       H  0.43143068  0.05927589  0.05227121     0.09000
H1221       H  0.47143965  0.98763550  0.15141247     0.07000
Br1222     Br  0.51890637  0.96997483  0.09535621    -0.03600
C1223       C  0.46942441  0.99749521  0.36628214    -0.10200
C1224       C  0.44174993  0.97433241  0.36040803     0.06000
C1225       C  0.43304681  0.95208160  0.38863382    -0.04000
C1226       C  0.44729623  0.95738369  0.42222154    -0.08500
C1227       C  0.47287303  0.98266173  0.42853186     0.05100
C1228       C  0.48541960  0.00081823  0.39917156    -0.03500
Br1229     Br  0.52576589  0.02942224  0.40243141    -0.03200
H1230       H  0.47847685  0.01377619  0.34526556     0.09000
H1231       H  0.43803037  0.94167356  0.44348411     0.07000
Br1232     Br  0.40108687  0.91445571  0.38334648    -0.03600
C1233       C  0.59134745  0.29043532  0.53094183    -0.10200
C1234       C  0.59916434  0.26800805  0.55810400     0.06000
C1235       C  0.63365849  0.25769266  0.56467729    -0.04000
C1236       C  0.66038533  0.27458417  0.54782267    -0.08500
C1237       C  0.65247006  0.30088621  0.52430478     0.05100
C1238       C  0.61804881  0.30677634  0.51360145    -0.03500
Br1239     Br  0.60574824  0.33701793  0.47642078    -0.03200
H1240       H  0.56461357  0.29712382  0.52493673     0.09000
H1241       H  0.68708788  0.26908585  0.55497430     0.07000
Br1242     Br  0.64591152  0.22160365  0.59637697    -0.03600
C1243       C  0.52419504  0.08962187  0.70734945    -0.10200
C1244       C  0.54960115  0.09911319  0.73092980     0.06000
C1245       C  0.55227487  0.13351868  0.74269380    -0.04000
C1246       C  0.53419488  0.15936084  0.72546707    -0.08500
C1247       C  0.51350822  0.15022129  0.69752695     0.05100
C1248       C  0.50552970  0.11538472  0.69069192    -0.03500
Br1249     Br  0.47117184  0.10185033  0.65795364    -0.03200
H1250       H  0.52083856  0.06264209  0.69996206     0.09000
H1251       H  0.53880304  0.18646012  0.73167167     0.07000
Br1252     Br  0.58075525  0.14658844  0.78073452    -0.03600
C1253       C  0.40744527  0.21761093  0.52145248    -0.10200
C1254       C  0.39916307  0.23563966  0.55179077     0.06000
C1255       C  0.36416897  0.24119764  0.56123968    -0.04000
C1256       C  0.33854354  0.22313087  0.54446028    -0.08500
C1257       C  0.34771156  0.20016795  0.51825708     0.05100
C1258       C  0.38145342  0.19987492  0.50425927    -0.03500
Br1259     Br  0.39334579  0.17506546  0.46303416    -0.03200
H1260       H  0.43424303  0.21450168  0.51317566     0.09000
H1261       H  0.31199793  0.22466513  0.55389709     0.07000
Br1262     Br  0.34932855  0.27058534  0.59805574    -0.03600
C1263       C  0.49317868  0.37833314  0.69184311    -0.10200
C1264       C  0.48050823  0.34566200  0.70139541     0.06000
C1265       C  0.45751336  0.34221995  0.72930203    -0.04000
C1266       C  0.44200956  0.37204861  0.74256073    -0.08500
C1267       C  0.45066891  0.40463840  0.72906128     0.05100
C1268       C  0.47866695  0.40819713  0.70615651    -0.03500
Br1269     Br  0.49528060  0.45240869  0.69081831    -0.03200
H1270       H  0.51209536  0.38065963  0.67109816     0.09000
H1271       H  0.42131787  0.36969582  0.76142063     0.07000
Br1272     Br  0.44354179  0.29802823  0.74728835    -0.03600
C1273       C  0.53504243  0.39542786  0.58829829    -0.10200
C1274       C  0.52117223  0.36568880  0.57195988     0.06000
C1275       C  0.50577806  0.37105623  0.53883636    -0.04000
C1276       C  0.50305544  0.40469225  0.52429083    -0.08500
C1277       C  0.51604137  0.43431726  0.54091808     0.05100
C1278       C  0.53300417  0.42907339  0.57305503    -0.03500
Br1279     Br  0.55486701  0.46655564  0.59683929    -0.03200
H1280       H  0.54740614  0.39265163  0.61331492     0.09000
H1281       H  0.49034425  0.40779497  0.49947529     0.07000
Br1282     Br  0.48763441  0.33405863  0.51098069    -0.03600
C1283       C  0.45735691  0.10665604  0.57118453    -0.10200
C1284       C  0.48052949  0.13404505  0.56364819     0.06000
C1285       C  0.50724294  0.12642225  0.53899876    -0.04000
C1286       C  0.50996012  0.09332127  0.52312663    -0.08500
C1287       C  0.48778513  0.06572828  0.53167135     0.05100
C1288       C  0.46123164  0.07291803  0.55626215    -0.03500
Br1289     Br  0.43111535  0.03696644  0.57228408    -0.03200
H1290       H  0.43660134  0.11111740  0.58972230     0.09000
H1291       H  0.53073503  0.08861284  0.50461049     0.07000
Br1292     Br  0.54340631  0.15851667  0.52732451    -0.03600
C1293       C  0.28712306  0.16843120  0.64808420    -0.10200
C1294       C  0.27099736  0.18290494  0.61841455     0.06000
C1295       C  0.25101412  0.21396339  0.62393882    -0.04000
C1296       C  0.24801931  0.22920932  0.65726234    -0.08500
C1297       C  0.26372807  0.21451409  0.68674770     0.05100
C1298       C  0.28351294  0.18356925  0.68158541    -0.03500
Br1299     Br  0.30574604  0.16022679  0.71935896    -0.03200
H1300       H  0.30219063  0.14460197  0.64545008     0.09000
H1301       H  0.23242904  0.25267442  0.66033908     0.07000
Br1302     Br  0.22522752  0.23694616  0.58792222    -0.03600
C1303       C  0.18886279  0.18163860  0.71140602    -0.10200
C1304       C  0.21208802  0.18759541  0.73880876     0.06000
C1305       C  0.21844065  0.15997323  0.76214849    -0.04000
C1306       C  0.20056215  0.12844466  0.75922602    -0.08500
C1307       C  0.17688939  0.12228598  0.73222120     0.05100
C1308       C  0.17184229  0.14936018  0.70763989    -0.03500
Br1309     Br  0.14440837  0.14320066  0.66692911    -0.03200
H1310       H  0.18407105  0.20213467  0.69270125     0.09000
H1311       H  0.20574396  0.10827879  0.77819422     0.07000
Br1312     Br  0.25328517  0.16281618  0.79729819    -0.03600
C1313       C  0.31787800  0.32025127  0.78348350    -0.10200
C1314       C  0.28607389  0.31815719  0.76567152     0.06000
C1315       C  0.27152188  0.34946931  0.75292591    -0.04000
C1316       C  0.28980595  0.38089962  0.75504976    -0.08500
C1317       C  0.32186365  0.38337783  0.77239447     0.05100
C1318       C  0.33495583  0.35243979  0.78813811    -0.03500
Br1319     Br  0.37450871  0.35237284  0.81820143    -0.03200
H1320       H  0.32919924  0.29681237  0.79444397     0.09000
H1321       H  0.27854819  0.40372546  0.74284999     0.07000
Br1322     Br  0.22662906  0.35083377  0.73161665    -0.03600
C1323       C  0.34061235  0.24411309  0.72525516    -0.10200
C1324       C  0.31372269  0.26660941  0.71480156     0.06000
C1325       C  0.32171078  0.29214486  0.68969572    -0.04000
C1326       C  0.35587729  0.29500891  0.67638371    -0.08500
C1327       C  0.38215145  0.27051929  0.68465746     0.05100
C1328       C  0.37374892  0.24478041  0.70978663    -0.03500
Br1329     Br  0.40468281  0.20745854  0.72284118    -0.03200
H1330       H  0.33537298  0.22482110  0.74499645     0.09000
H1331       H  0.36129068  0.31525179  0.65764708     0.07000
Br1332     Br  0.28646425  0.32110802  0.66967443    -0.03600
C1333       C  0.31792001  0.49257875  0.88411129    -0.10200
C1334       C  0.30704340  0.48087185  0.85154633     0.06000
C1335       C  0.27823540  0.45931314  0.84847923    -0.04000
C1336       C  0.26477062  0.44438850  0.87814414    -0.08500
C1337       C  0.27892063  0.45233840  0.91045979     0.05100
C1338       C  0.30306413  0.47903738  0.91393459    -0.03500
Br1339     Br  0.31758332  0.49628890  0.95798448    -0.03200
H1340       H  0.33926865  0.51061768  0.88628898     0.09000
H1341       H  0.24487910  0.42478769  0.87578621     0.07000
Br1342     Br  0.25847855  0.44705144  0.80489754    -0.03600
C1343       C  0.19914060  0.47088772  0.08766916    -0.10200
C1344       C  0.22917259  0.45259718  0.09564216     0.06000
C1345       C  0.24232022  0.45234860  0.12947743    -0.04000
C1346       C  0.22210982  0.46621489  0.15608115    -0.08500
C1347       C  0.18886037  0.47900208  0.14862988     0.05100
C1348       C  0.17800544  0.48273137  0.11401611    -0.03500
Br1349     Br  0.13369210  0.49965390  0.10009580    -0.03200
H1350       H  0.19006638  0.47233427  0.06124941     0.09000
H1351       H  0.23097898  0.46419544  0.18263923     0.07000
Br1352     Br  0.28595764  0.43099754  0.14058968    -0.03600
C1353       C  0.33453244  0.28419506  0.06440418    -0.10200
C1354       C  0.33666261  0.29076771  0.02920004     0.06000
C1355       C  0.36724886  0.28259278  0.01089668    -0.04000
C1356       C  0.39702919  0.27353320  0.02927005    -0.08500
C1357       C  0.39654077  0.27525961  0.06555398     0.05100
C1358       C  0.36457632  0.28045403  0.08324564    -0.03500
Br1359     Br  0.35880486  0.28975337  0.13192622    -0.03200
H1360       H  0.31092499  0.28857606  0.07775311     0.09000
H1361       H  0.42104493  0.26860232  0.01537573     0.07000
Br1362     Br  0.37085438  0.28847159  0.96186466    -0.03600
C1363       C  0.09183616  0.48057920  0.99803150    -0.10200
C1364       C  0.06489376  0.46636181  0.01834360     0.06000
C1365       C  0.07466428  0.44035630  0.04259966    -0.04000
C1366       C  0.10955852  0.42888641  0.04535881    -0.08500
C1367       C  0.13580041  0.44055684  0.02271111     0.05100
C1368       C  0.12658486  0.46806865  0.99979142    -0.03500
Br1369     Br  0.15958018  0.48902979  0.96899934    -0.03200
H1370       H  0.08555040  0.50101236  0.97966991     0.09000
H1371       H  0.11561264  0.40826643  0.06359202     0.07000
Br1372     Br  0.04192029  0.41589451  0.07027181    -0.03600
C1373       C  0.37659243  0.45694785  0.00829206    -0.10200
C1374       C  0.37273101  0.42723905  0.98705551     0.06000
C1375       C  0.40195862  0.41723080  0.96658868    -0.04000
C1376       C  0.43348916  0.43599940  0.96835219    -0.08500
C1377       C  0.43693791  0.46552481  0.98975541     0.05100
C1378       C  0.40756505  0.47612858  0.00920302    -0.03500
Br1379     Br  0.40814916  0.51747164  0.03709564    -0.03200
H1380       H  0.35510561  0.46575036  0.02437288     0.09000
H1381       H  0.45557245  0.42719948  0.95312664     0.07000
Br1382     Br  0.40059796  0.37870138  0.93513831    -0.03600
C1383       C  0.20657081  0.33072606  0.86006059    -0.10200
C1384       C  0.23435359  0.32663552  0.88348462     0.06000
C1385       C  0.26290712  0.30582636  0.87253383    -0.04000
C1386       C  0.26289040  0.28909709  0.84015790    -0.08500
C1387       C  0.23518971  0.29254896  0.81671518     0.05100
C1388       C  0.20669396  0.31400672  0.82717250    -0.03500
Br1389     Br  0.16772382  0.32267057  0.79768830    -0.03200
H1390       H  0.18454231  0.34693954  0.86738344     0.09000
H1391       H  0.28508672  0.27300290  0.83310479     0.07000
Br1392     Br  0.30457217  0.30138108  0.89912064    -0.03600
C1393       C  0.22546724  0.34432585  0.25590209    -0.10200
C1394       C  0.21300866  0.31539117  0.23778539     0.06000
C1395       C  0.18522994  0.32117285  0.21463158    -0.04000
C1396       C  0.17088423  0.35510144  0.21011492    -0.08500
C1397       C  0.18180788  0.38386785  0.23008579     0.05100
C1398       C  0.21036536  0.37776722  0.25272640    -0.03500
Br1399     Br  0.23038647  0.41308739  0.28146025    -0.03200
H1400       H  0.24712189  0.34071527  0.27340010     0.09000
H1401       H  0.15039176  0.35876098  0.19136559     0.07000
Br1402     Br  0.16483626  0.28321672  0.19009778    -0.03600
C1403       C  0.21284408  0.16748935  0.35750824    -0.10200
C1404       C  0.23011002  0.18155599  0.38645146     0.06000
C1405       C  0.24871537  0.21298263  0.38097531    -0.04000
C1406       C  0.25080760  0.22805968  0.34772880    -0.08500
C1407       C  0.23453421  0.21336639  0.31880249     0.05100
C1408       C  0.21482927  0.18297792  0.32424907    -0.03500
Br1409     Br  0.19048721  0.16113890  0.28719414    -0.03200
H1410       H  0.19809922  0.14384816  0.36052800     0.09000
H1411       H  0.26603883  0.25137043  0.34424459     0.07000
Br1412     Br  0.27315646  0.23708832  0.41693352    -0.03600
C1413       C  0.32391588  0.21677757  0.18879419    -0.10200
C1414       C  0.31840307  0.23615315  0.21934499     0.06000
C1415       C  0.34812738  0.25114227  0.23462045    -0.04000
C1416       C  0.38137903  0.24855140  0.21862542    -0.08500
C1417       C  0.38693307  0.23027566  0.18721291     0.05100
C1418       C  0.35733123  0.21312207  0.17327322    -0.03500
Br1419     Br  0.35985893  0.18478412  0.13234859    -0.03200
H1420       H  0.30196274  0.20458600  0.17653802     0.09000
H1421       H  0.40291739  0.26180281  0.23057950     0.07000
Br1422     Br  0.34437962  0.27621172  0.27748063    -0.03600
C1423       C  0.29259675  0.12344438  0.24884169    -0.10200
C1424       C  0.31617084  0.11537538  0.27561092     0.06000
C1425       C  0.32257076  0.14176763  0.30047019    -0.04000
C1426       C  0.30819989  0.17569141  0.29636063    -0.08500
C1427       C  0.28626678  0.18396790  0.26830201     0.05100
C1428       C  0.27765476  0.15684057  0.24528313    -0.03500
Br1429     Br  0.24471212  0.16392842  0.20863218    -0.03200
H1430       H  0.28635054  0.10387335  0.22971090     0.09000
H1431       H  0.31418070  0.19564448  0.31517316     0.07000
Br1432     Br  0.35004760  0.13268885  0.34091908    -0.03600
C1433       C  0.25005372  0.26880382  0.15968845    -0.10200
C1434       C  0.26500198  0.28557536  0.18832609     0.06000
C1435       C  0.28135815  0.31768489  0.18244360    -0.04000
C1436       C  0.28130470  0.33283838  0.14914312    -0.08500
C1437       C  0.26511562  0.31695468  0.12048842     0.05100
C1438       C  0.24990324  0.28389399  0.12629248    -0.03500
Br1439     Br  0.22840495  0.25741007  0.09023814    -0.03200
H1440       H  0.23757610  0.24393645  0.16353959     0.09000
H1441       H  0.29439102  0.35730620  0.14572746     0.07000
Br1442     Br  0.30486440  0.34174389  0.21872804    -0.03600
C1443       C  0.84705279  0.27261609  0.47245565    -0.10200
C1444       C  0.85470253  0.30560366  0.48549876     0.06000
C1445       C  0.88946241  0.31632780  0.48804142    -0.04000
C1446       C  0.91559414  0.29557900  0.47451735    -0.08500
C1447       C  0.90716583  0.26589136  0.45612145     0.05100
C1448       C  0.87328483  0.25282435  0.45700444    -0.03500
Br1449     Br  0.86141184  0.20999138  0.43497427    -0.03200
H1450       H  0.82042242  0.26386141  0.47115011     0.09000
H1451       H  0.94202909  0.30480063  0.47482594     0.07000
Br1452     Br  0.90349511  0.36024194  0.50549562    -0.03600
C1453       C  0.09405143  0.20973491  0.47692313    -0.10200
C1454       C  0.10156083  0.23032120  0.44820968     0.06000
C1455       C  0.13606526  0.23942713  0.44080707    -0.04000
C1456       C  0.16292394  0.22234063  0.45755645    -0.08500
C1457       C  0.15519016  0.19750193  0.48246604     0.05100
C1458       C  0.12100449  0.19349069  0.49456094    -0.03500
Br1459     Br  0.10989248  0.16555044  0.53390690    -0.03200
H1460       H  0.06742561  0.20442063  0.48401698     0.09000
H1461       H  0.18956033  0.22676955  0.44960580     0.07000
Br1462     Br  0.14814659  0.27514270  0.40916137    -0.03600
C1463       C  0.03955044  0.33874676  0.28044483    -0.10200
C1464       C  0.01530665  0.34701997  0.30591213     0.06000
C1465       C  0.00391197  0.38155889  0.31061206    -0.04000
C1466       C  0.02199941  0.40825445  0.29473341    -0.08500
C1467       C  0.05007605  0.40001362  0.27323719     0.05100
C1468       C  0.05660619  0.36525766  0.26349865    -0.03500
Br1469     Br  0.08802533  0.35216122  0.22764447    -0.03200
H1470       H  0.04696671  0.31187296  0.27551542     0.09000
H1471       H  0.01552455  0.43514454  0.30070289     0.07000
Br1472     Br  0.96395015  0.39322680  0.33762094    -0.03600
C1473       C  0.95777696  0.39138286  0.42577015    -0.10200
C1474       C  0.97756070  0.36321793  0.43885927     0.06000
C1475       C  0.99878795  0.37041780  0.46807602    -0.04000
C1476       C  0.99993157  0.40429435  0.48243947    -0.08500
C1477       C  0.98247151  0.43284866  0.46734041     0.05100
C1478       C  0.96139564  0.42580918  0.43830125    -0.03500
Br1479     Br  0.93935649  0.46216210  0.41246055    -0.03200
H1480       H  0.94011671  0.38689293  0.40463927     0.09000
H1481       H  0.01618597  0.40876310  0.50481713     0.07000
Br1482     Br  0.02889202  0.33627289  0.48899147    -0.03600
C1483       C  0.85523242  0.21010973  0.33683150    -0.10200
C1484       C  0.88477049  0.22471730  0.32087339     0.06000
C1485       C  0.87956002  0.24045390  0.28780525    -0.04000
C1486       C  0.84613532  0.24234724  0.27286575    -0.08500
C1487       C  0.81647400  0.22958859  0.28983189     0.05100
C1488       C  0.82167446  0.21260861  0.32201601    -0.03500
Br1489     Br  0.78418350  0.19180504  0.34700142    -0.03200
H1490       H  0.85803417  0.19702534  0.36144782     0.09000
H1491       H  0.84309476  0.25497587  0.24793304     0.07000
Br1492     Br  0.91637965  0.26068417  0.26098295    -0.03600
C1493       C  0.14184702  0.29355791  0.32810829    -0.10200
C1494       C  0.11445121  0.27211482  0.31711687     0.06000
C1495       C  0.12209384  0.24844569  0.28962568    -0.04000
C1496       C  0.15598167  0.24566901  0.27573052    -0.08500
C1497       C  0.18376111  0.26502237  0.28882250     0.05100
C1498       C  0.17621789  0.28922406  0.31545502    -0.03500
Br1499     Br  0.21225824  0.31499489  0.33744110    -0.03200
H1500       H  0.13686231  0.31296536  0.34788782     0.09000
H1501       H  0.16089092  0.22750086  0.25475121     0.07000
Br1502     Br  0.08837792  0.21776921  0.26991836    -0.03600
C1503       C  0.77283666  0.45774404  0.66306586    -0.10200
C1504       C  0.79662288  0.48327301  0.65462507     0.06000
C1505       C  0.80004956  0.49501992  0.62029200    -0.04000
C1506       C  0.78398342  0.47682092  0.59390323    -0.08500
C1507       C  0.76495453  0.44724678  0.60204876     0.05100
C1508       C  0.75701737  0.43940216  0.63683051    -0.03500
Br1509     Br  0.72762622  0.40239342  0.65062073    -0.03200
H1510       H  0.76951249  0.44949174  0.68974934     0.09000
H1511       H  0.78919808  0.48361183  0.56711583     0.07000
Br1512     Br  0.82827681  0.53362508  0.60791652    -0.03600
C1513       C  0.77720728  0.54467088  0.83710151    -0.10200
C1514       C  0.79936208  0.51752604  0.84619730     0.06000
C1515       C  0.80037635  0.50510869  0.88041666    -0.04000
C1516       C  0.78394655  0.52426377  0.90641456    -0.08500
C1517       C  0.76627031  0.55495417  0.89776486     0.05100
C1518       C  0.76045284  0.56346875  0.86276561    -0.03500
Br1519     Br  0.73175960  0.60116612  0.84796815    -0.03200
H1520       H  0.77515884  0.55304944  0.81036268     0.09000
H1521       H  0.78725611  0.51678221  0.93330052     0.07000
Br1522     Br  0.82425051  0.46307884  0.89263750    -0.03600
C1523       C  0.95464523  0.49477470  0.62718736    -0.10200
C1524       C  0.93029394  0.52162346  0.63412507     0.06000
C1525       C  0.92492712  0.54682665  0.60773157    -0.04000
C1526       C  0.94078361  0.54274238  0.57467007    -0.08500
C1527       C  0.96396343  0.51491554  0.56763040     0.05100
C1528       C  0.97180822  0.49182717  0.59505257    -0.03500
Br1529     Br  0.00637127  0.45566848  0.59005304    -0.03200
H1530       H  0.96038768  0.47552168  0.64691601     0.09000
H1531       H  0.93531347  0.56164905  0.55456273     0.07000
Br1532     Br  0.89952034  0.58915797  0.61649469    -0.03600
C1533       C  0.91791686  0.45752981  0.89456509    -0.10200
C1534       C  0.93322979  0.47309450  0.86524072     0.06000
C1535       C  0.96585858  0.48936692  0.87079954    -0.04000
C1536       C  0.98017735  0.49204730  0.90456577    -0.08500
C1537       C  0.96335504  0.47878358  0.93423900     0.05100
C1538       C  0.93205493  0.46048794  0.92831708    -0.03500
Br1539     Br  0.90646158  0.43874882  0.96467175    -0.03200
H1540       H  0.89424731  0.44312823  0.89138962     0.09000
H1541       H  0.00456902  0.50544068  0.90777027     0.07000
Br1542     Br  0.99315179  0.50826820  0.83365298    -0.03600
C1543       C  0.78309093  0.61794752  0.75673825    -0.10200
C1544       C  0.81543139  0.61577734  0.77390879     0.06000
C1545       C  0.82793324  0.64751890  0.78811784    -0.04000
C1546       C  0.80998605  0.67971632  0.78256397    -0.08500
C1547       C  0.77850264  0.68164626  0.76397284     0.05100
C1548       C  0.76487732  0.64977805  0.75204461    -0.03500
Br1549     Br  0.72219905  0.64833157  0.72669318    -0.03200
H1550       H  0.77198217  0.59462816  0.74582592     0.09000
H1551       H  0.82084103  0.70349054  0.79276108     0.07000
Br1552     Br  0.86861487  0.64895409  0.81641607    -0.03600
C1553       C  0.73087948  0.15376051  0.75473528    -0.10200
C1554       C  0.71490981  0.18312411  0.76993919     0.06000
C1555       C  0.68455213  0.17762479  0.78973084    -0.04000
C1556       C  0.67013878  0.14392657  0.79244980    -0.08500
C1557       C  0.68402576  0.11499251  0.77417313     0.05100
C1558       C  0.71575537  0.12044480  0.75597718    -0.03500
Br1559     Br  0.73986715  0.08444792  0.73067159    -0.03200
H1560       H  0.75465268  0.15714791  0.74004451     0.09000
H1561       H  0.64729435  0.14061185  0.80837750     0.07000
Br1562     Br  0.66129393  0.21544982  0.81276017    -0.03600
C1563       C  0.74595775  0.22771806  0.84681653    -0.10200
C1564       C  0.76626244  0.21523827  0.81890233     0.06000
C1565       C  0.79129899  0.18919979  0.82671299    -0.04000
C1566       C  0.79458488  0.17565523  0.86091944    -0.08500
C1567       C  0.77222062  0.18604719  0.88837638     0.05100
C1568       C  0.74866066  0.21387172  0.88078417    -0.03500
Br1569     Br  0.71853816  0.23453573  0.91505932    -0.03200
H1570       H  0.72728201  0.24843298  0.84203507     0.09000
H1571       H  0.81388903  0.15552852  0.86562970     0.07000
Br1572     Br  0.82009484  0.16954814  0.79101755    -0.03600
C1573       C  0.65558709  0.25560515  0.72541886    -0.10200
C1574       C  0.68262969  0.23204662  0.71707293     0.06000
C1575       C  0.67460328  0.20538802  0.69303423    -0.04000
C1576       C  0.64044846  0.20207935  0.67943852    -0.08500
C1577       C  0.61370340  0.22661021  0.68673819     0.05100
C1578       C  0.62244256  0.25409497  0.70978137    -0.03500
Br1579     Br  0.59229298  0.29347285  0.71788111    -0.03200
H1580       H  0.66093799  0.27680873  0.74306655     0.09000
H1581       H  0.63531324  0.18105784  0.66153806     0.07000
Br1582     Br  0.71005036  0.17523761  0.67471122    -0.03600
C1583       C  0.70607369  0.30463050  0.67639091    -0.10200
C1584       C  0.73370128  0.28151046  0.68417274     0.06000
C1585       C  0.75667158  0.27262269  0.65679838    -0.04000
C1586       C  0.75385583  0.28873938  0.62410104    -0.08500
C1587       C  0.72732472  0.31315759  0.61655491     0.05100
C1588       C  0.70196411  0.31918356  0.64280374    -0.03500
Br1589     Br  0.66001032  0.34505090  0.63374199    -0.03200
H1590       H  0.68753534  0.31155509  0.69642039     0.09000
H1591       H  0.77320437  0.28242198  0.60456901     0.07000
Br1592     Br  0.79245326  0.23793397  0.66255870    -0.03600
C1593       C  0.81136280  0.31952423  0.71035850    -0.10200
C1594       C  0.78347616  0.31420935  0.73338541     0.06000
C1595       C  0.76897444  0.34399020  0.74964703    -0.04000
C1596       C  0.78496561  0.37682848  0.74662875    -0.08500
C1597       C  0.81429097  0.38200421  0.72515009     0.05100
C1598       C  0.82527594  0.35308243  0.70478042    -0.03500
Br1599     Br  0.85488988  0.35853344  0.66537729    -0.03200
H1600       H  0.82184219  0.29774503  0.69583633     0.09000
H1601       H  0.77421458  0.39846574  0.76129127     0.07000
Br1602     Br  0.72623392  0.34115948  0.77521375    -0.03600
C1603       C  0.52883369  0.84965555  0.77599105    -0.10200
C1604       C  0.51652049  0.85677328  0.80946355     0.06000
C1605       C  0.51471275  0.89132370  0.82165050    -0.04000
C1606       C  0.52727662  0.91778031  0.80133564    -0.08500
C1607       C  0.54491091  0.90975955  0.77101619     0.05100
C1608       C  0.54397962  0.87616819  0.75685132    -0.03500
Br1609     Br  0.56578425  0.86519863  0.71339884    -0.03200
H1610       H  0.52978774  0.82318559  0.76626738     0.09000
H1611       H  0.52705416  0.94405147  0.81130260     0.07000
Br1612     Br  0.50026411  0.90463608  0.86701873    -0.03600
C1613       C  0.59859563  0.72574154  0.97450050    -0.10200
C1614       C  0.60276463  0.73191947  0.93890753     0.06000
C1615       C  0.63649499  0.73245975  0.92450339    -0.04000
C1616       C  0.66448650  0.72256340  0.94425157    -0.08500
C1617       C  0.65912580  0.70950092  0.97709854     0.05100
C1618       C  0.62707385  0.71442971  0.99381760    -0.03500
Br1619     Br  0.62193265  0.70627207  0.04236686    -0.03200
H1620       H  0.57320132  0.72753874  0.98662262     0.09000
H1621       H  0.68996825  0.72144347  0.93257628     0.07000
Br1622     Br  0.64729250  0.74286579  0.87770350    -0.03600
C1623       C  0.49506687  0.62254175  0.80541895    -0.10200
C1624       C  0.48186897  0.65547911  0.79659325     0.06000
C1625       C  0.45819429  0.65924155  0.76942997    -0.04000
C1626       C  0.44235400  0.62966564  0.75674478    -0.08500
C1627       C  0.45153819  0.59685540  0.76980327     0.05100
C1628       C  0.48035555  0.59288817  0.79149468    -0.03500
Br1629     Br  0.49795162  0.54837045  0.80575061    -0.03200
H1630       H  0.51455871  0.61985177  0.82544324     0.09000
H1631       H  0.42107550  0.63243370  0.73871698     0.07000
Br1632     Br  0.44403727  0.70365486  0.75162583    -0.03600
C1633       C  0.53345698  0.60357664  0.91041843    -0.10200
C1634       C  0.52351363  0.63470455  0.92759810     0.06000
C1635       C  0.51263421  0.63139084  0.96276271    -0.04000
C1636       C  0.50948230  0.59839278  0.97844150    -0.08500
C1637       C  0.51746127  0.56729417  0.96076596     0.05100
C1638       C  0.53103870  0.57045904  0.92669284    -0.03500
Br1639     Br  0.54833208  0.53077993  0.90177045    -0.03200
H1640       H  0.54276513  0.60483262  0.88393125     0.09000
H1641       H  0.49998235  0.59696748  0.00487630     0.07000
Br1642     Br  0.50174109  0.67060845  0.99194947    -0.03600
C1643       C  0.61293034  0.75751572  0.78140597    -0.10200
C1644       C  0.60918716  0.77957048  0.81045285     0.06000
C1645       C  0.63863691  0.79951671  0.81971735    -0.04000
C1646       C  0.67159392  0.79245937  0.80434720    -0.08500
C1647       C  0.67567716  0.76743805  0.77780781     0.05100
C1648       C  0.64516775  0.75218471  0.76475471    -0.03500
Br1649     Br  0.64601260  0.72273280  0.72450600    -0.03200
H1650       H  0.59084865  0.74303851  0.77216032     0.09000
H1651       H  0.69411781  0.80638018  0.81337961     0.07000
Br1652     Br  0.63576997  0.83560327  0.85407382    -0.03600
C1653       C  0.50020495  0.87063306  0.96575819    -0.10200
C1654       C  0.47473917  0.86428653  0.94044826     0.06000
C1655       C  0.45145899  0.89235717  0.93295033    -0.04000
C1656       C  0.45668071  0.92604328  0.94705384    -0.08500
C1657       C  0.48391594  0.93269630  0.97026602     0.05100
C1658       C  0.50434348  0.90379524  0.98095251    -0.03500
Br1659     Br  0.53727734  0.90760121  0.01784093    -0.03200
H1660       H  0.51777138  0.84982242  0.97335833     0.09000
H1661       H  0.43948830  0.94722126  0.93958448     0.07000
Br1662     Br  0.41266132  0.88698091  0.90263356    -0.03600
C1663       C  0.21348518  0.88094586  0.75856472    -0.10200
C1664       C  0.17976534  0.88522222  0.77260961     0.06000
C1665       C  0.16320243  0.85433252  0.78463177    -0.04000
C1666       C  0.17917112  0.82111837  0.78041062    -0.08500
C1667       C  0.21227934  0.81706935  0.76528697     0.05100
C1668       C  0.22956664  0.84778236  0.75509307    -0.03500
Br1669     Br  0.27495861  0.84557808  0.73447394    -0.03200
H1670       H  0.22725896  0.90351121  0.74915627     0.09000
H1671       H  0.16531727  0.79819727  0.78871756     0.07000
Br1672     Br  0.11792624  0.85463435  0.80576853    -0.03600
C1673       C  0.31564229  0.68080316  0.71692715    -0.10200
C1674       C  0.28508156  0.68498486  0.73648787     0.06000
C1675       C  0.27090445  0.65532975  0.75252985    -0.04000
C1676       C  0.28888092  0.62329163  0.75168799    -0.08500
C1677       C  0.31993466  0.61881286  0.73256819     0.05100
C1678       C  0.33238573  0.64808449  0.71387834    -0.03500
Br1679     Br  0.37112396  0.64548341  0.68250462    -0.03200
H1680       H  0.32651708  0.70308401  0.70378980     0.09000
H1681       H  0.27820872  0.60164934  0.76606094     0.07000
Br1682     Br  0.22667831  0.65727080  0.77579106    -0.03600
C1683       C  0.34113390  0.75764982  0.77349188    -0.10200
C1684       C  0.31443083  0.73630933  0.78594734     0.06000
C1685       C  0.32280256  0.71254947  0.81266947    -0.04000
C1686       C  0.35715131  0.70983259  0.82524884    -0.08500
C1687       C  0.38341076  0.73291028  0.81461797     0.05100
C1688       C  0.37455249  0.75730181  0.78824810    -0.03500
Br1689     Br  0.40517799  0.79326890  0.77261458    -0.03200
H1690       H  0.33528696  0.77636140  0.75325956     0.09000
H1691       H  0.36289726  0.69045639  0.84479481     0.07000
Br1692     Br  0.28801082  0.68590469  0.83572582    -0.03600
C1693       C  0.20991573  0.52707508  0.40769480    -0.10200
C1694       C  0.23081669  0.55506701  0.39880540     0.06000
C1695       C  0.23792343  0.56256553  0.36377609    -0.04000
C1696       C  0.22061754  0.54465431  0.33806573    -0.08500
C1697       C  0.19600869  0.52003809  0.34725516     0.05100
C1698       C  0.19215546  0.50957282  0.38198348    -0.03500
Br1699     Br  0.16138570  0.47356455  0.39607697    -0.03200
H1700       H  0.20490169  0.52094884  0.43468018     0.09000
H1701       H  0.22399199  0.55220830  0.31119302     0.07000
Br1702     Br  0.26864332  0.59840846  0.34931911    -0.03600
C1703       C  0.30905563  0.50830874  0.62404863    -0.10200
C1704       C  0.30028505  0.52202942  0.65664340     0.06000
C1705       C  0.27333565  0.54653941  0.65984103    -0.04000
C1706       C  0.26068391  0.56239862  0.63007879    -0.08500
C1707       C  0.27326373  0.55212847  0.59746119     0.05100
C1708       C  0.29472693  0.52263820  0.59422729    -0.03500
Br1709     Br  0.30755074  0.50324652  0.55024177    -0.03200
H1710       H  0.32888473  0.48820871  0.62168683     0.09000
H1711       H  0.24244241  0.58397414  0.63244765     0.07000
Br1712     Br  0.25445065  0.56023470  0.70368447    -0.03600
C1713       C  0.37914707  0.69133038  0.49464594    -0.10200
C1714       C  0.34615225  0.70201853  0.48343941     0.06000
C1715       C  0.34219374  0.73233786  0.46373435    -0.04000
C1716       C  0.37174041  0.74745868  0.44982912    -0.08500
C1717       C  0.40461067  0.73307613  0.45640494     0.05100
C1718       C  0.40862662  0.70746064  0.48188948    -0.03500
Br1719     Br  0.45311304  0.69182555  0.49783160    -0.03200
H1720       H  0.38204175  0.66872250  0.51109864     0.09000
H1721       H  0.36897986  0.76825196  0.43129358     0.07000
Br1722     Br  0.29755374  0.75086615  0.45130097    -0.03600
C1723       C  0.37385105  0.53925788  0.50122923    -0.10200
C1724       C  0.36875777  0.57063928  0.51972140     0.06000
C1725       C  0.39801627  0.58383030  0.53774942    -0.04000
C1726       C  0.43115796  0.56768522  0.53433473    -0.08500
C1727       C  0.43600412  0.53682211  0.51513153     0.05100
C1728       C  0.40637843  0.52209391  0.49976066    -0.03500
Br1729     Br  0.40920611  0.47841936  0.47578626    -0.03200
H1730       H  0.35234210  0.52781494  0.48748789     0.09000
H1731       H  0.45319313  0.57926286  0.54700879     0.07000
Br1732     Br  0.39463273  0.62250206  0.56912775    -0.03600
C1733       C  0.09608250  0.51684869  0.50187198    -0.10200
C1734       C  0.06700877  0.53211370  0.48556259     0.06000
C1735       C  0.07359422  0.56027399  0.46285714    -0.04000
C1736       C  0.10783648  0.57311547  0.45812941    -0.08500
C1737       C  0.13654591  0.56013334  0.47730111     0.05100
C1738       C  0.13006873  0.53030892  0.49819628    -0.03500
Br1739     Br  0.16600724  0.50655115  0.52344757    -0.03200
H1740       H  0.09218306  0.49448010  0.51848276     0.09000
H1741       H  0.11139361  0.59552198  0.44149364     0.07000
Br1742     Br  0.03635520  0.58433697  0.44005415    -0.03600
C1743       C  0.25293404  0.70623981  0.62344170    -0.10200
C1744       C  0.22874409  0.67946063  0.61760026     0.06000
C1745       C  0.20710443  0.67043582  0.64615311    -0.04000
C1746       C  0.21039460  0.68734952  0.67885791    -0.08500
C1747       C  0.23524609  0.71350262  0.68453641     0.05100
C1748       C  0.25643028  0.72272486  0.65599967    -0.03500
Br1749     Br  0.29131297  0.75778568  0.66029533    -0.03200
H1750       H  0.27020038  0.71397633  0.60265694     0.09000
H1751       H  0.19357529  0.67978551  0.70006027     0.07000
Br1752     Br  0.17172231  0.63601056  0.64186578    -0.03600
C1753       C  0.37594293  0.75950270  0.28935412    -0.10200
C1754       C  0.37835592  0.77366041  0.32302363     0.06000
C1755       C  0.34672796  0.78716134  0.33730468    -0.04000
C1756       C  0.31444320  0.78341427  0.31966526    -0.08500
C1757       C  0.31224025  0.76813047  0.28640503     0.05100
C1758       C  0.34412483  0.75704384  0.27135612    -0.03500
Br1759     Br  0.34611285  0.73593059  0.22666719    -0.03200
H1760       H  0.39915668  0.74938966  0.27680421     0.09000
H1761       H  0.29085665  0.79251372  0.33220958     0.07000
Br1762     Br  0.34549820  0.81257085  0.37991479    -0.03600
C1763       C  0.30369410  0.82717793  0.20480497    -0.10200
C1764       C  0.28211658  0.81820121  0.23315091     0.06000
C1765       C  0.27478835  0.84524266  0.25724989    -0.04000
C1766       C  0.29051856  0.87831939  0.25444320    -0.08500
C1767       C  0.31313153  0.88691143  0.22690549     0.05100
C1768       C  0.31793370  0.86104282  0.20091922    -0.03500
Br1769     Br  0.34164329  0.87113067  0.15823139    -0.03200
H1770       H  0.30986172  0.80792912  0.18539743     0.09000
H1771       H  0.28514640  0.89744127  0.27444438     0.07000
Br1772     Br  0.24194600  0.83904349  0.29414080    -0.03600
C1773       C  0.20870355  0.62152332  0.24674050    -0.10200
C1774       C  0.18231106  0.61486846  0.27138249     0.06000
C1775       C  0.17427387  0.64254406  0.29465741    -0.04000
C1776       C  0.18819505  0.67641599  0.28967430    -0.08500
C1777       C  0.21322397  0.68342256  0.26372979     0.05100
C1778       C  0.22476623  0.65448045  0.24385122    -0.03500
Br1779     Br  0.26478913  0.65790566  0.21440125    -0.03200
H1780       H  0.21725749  0.60083134  0.22954363     0.09000
H1781       H  0.17969143  0.69708658  0.30671847     0.07000
Br1782     Br  0.14782708  0.63460826  0.33617032    -0.03600
C1783       C  0.28897605  0.69664169  0.32468895    -0.10200
C1784       C  0.26038690  0.71799565  0.31597675     0.06000
C1785       C  0.23692954  0.72692291  0.34303421    -0.04000
C1786       C  0.24005103  0.71181504  0.37630706    -0.08500
C1787       C  0.26743222  0.68865094  0.38462422     0.05100
C1788       C  0.29314403  0.68297887  0.35858245    -0.03500
Br1789     Br  0.33581313  0.65883763  0.36824424    -0.03200
H1790       H  0.30850341  0.69094819  0.30514393     0.09000
H1791       H  0.22048155  0.71795108  0.39567661     0.07000
Br1792     Br  0.20063015  0.76084329  0.33624278    -0.03600
C1793       C  0.90769015  0.71381433  0.02140379    -0.10200
C1794       C  0.89924101  0.73472995  0.04973980     0.06000
C1795       C  0.86433171  0.74254176  0.05775159    -0.04000
C1796       C  0.83832195  0.72472526  0.04104832    -0.08500
C1797       C  0.84722686  0.69973505  0.01645749     0.05100
C1798       C  0.88153156  0.69640094  0.00433617    -0.03500
Br1799     Br  0.89406986  0.66799039  0.96568028    -0.03200
H1800       H  0.93459634  0.70867834  0.01452788     0.09000
H1801       H  0.81153418  0.72836004  0.04917393     0.07000
Br1802     Br  0.85053630  0.77525320  0.09241829    -0.03600
C1803       C  0.03655889  0.65744027  0.21913666    -0.10200
C1804       C  0.01702868  0.64761923  0.19061715     0.06000
C1805       C  0.00994279  0.61239498  0.18408351    -0.04000
C1806       C  0.02500423  0.58715155  0.20480103    -0.08500
C1807       C  0.04874736  0.59697335  0.22992613     0.05100
C1808       C  0.05344828  0.63217630  0.23829677    -0.03500
Br1809     Br  0.08574598  0.64753712  0.27215188    -0.03200
H1810       H  0.04171693  0.68467732  0.22415162     0.09000
H1811       H  0.02128972  0.55992193  0.19866116     0.07000
Br1812     Br  0.98309144  0.59682296  0.14578227    -0.03600
C1813       C  0.95111463  0.61006753  0.06872228    -0.10200
C1814       C  0.97519336  0.63582507  0.05916756     0.06000
C1815       C  0.00052819  0.62638397  0.03381484    -0.04000
C1816       C  0.00254311  0.59204160  0.02090297    -0.08500
C1817       C  0.97998307  0.56579888  0.03227949     0.05100
C1818       C  0.95365074  0.57550387  0.05619963    -0.03500
Br1819     Br  0.92202415  0.54246215  0.07511826    -0.03200
H1820       H  0.93116448  0.61632081  0.08767610     0.09000
H1821       H  0.02270186  0.58546203  0.00225764     0.07000
Br1822     Br  0.03481102  0.65803907  0.01651244    -0.03600
C1823       C  0.87667102  0.74702846  0.20659319    -0.10200
C1824       C  0.88470433  0.77344071  0.18259783     0.06000
C1825       C  0.85885233  0.79922413  0.17648549    -0.04000
C1826       C  0.82483519  0.79528610  0.18990960    -0.08500
C1827       C  0.81639205  0.76763629  0.21237938     0.05100
C1828       C  0.84362944  0.74478006  0.22213833    -0.03500
Br1829     Br  0.83754326  0.71088248  0.25805992    -0.03200
H1830       H  0.89617968  0.72768360  0.21329698     0.09000
H1831       H  0.80518369  0.81423841  0.18299976     0.07000
Br1832     Br  0.86938694  0.84178587  0.15268582    -0.03600
C1833       C  0.14431484  0.71061355  0.16429260    -0.10200
C1834       C  0.11418601  0.72426620  0.18036811     0.06000
C1835       C  0.11912663  0.74080057  0.21306794    -0.04000
C1836       C  0.15277986  0.74427002  0.22744876    -0.08500
C1837       C  0.18306482  0.73237053  0.21027500     0.05100
C1838       C  0.17802268  0.71504747  0.17817685    -0.03500
Br1839     Br  0.21551403  0.69710794  0.15086946    -0.03200
H1840       H  0.14181612  0.69680568  0.14010242     0.09000
H1841       H  0.15540207  0.75730514  0.25219291     0.07000
Br1842     Br  0.08146834  0.76003867  0.23999632    -0.03600
C1843       C  0.08700415  0.80011084  0.03017188    -0.10200
C1844       C  0.09547797  0.77070800  0.04923040     0.06000
C1845       C  0.12937183  0.75692455  0.04872975    -0.04000
C1846       C  0.15566757  0.77603032  0.03326790    -0.08500
C1847       C  0.14784227  0.80863114  0.01902193     0.05100
C1848       C  0.11302616  0.81972662  0.01569061    -0.03500
Br1849     Br  0.09874720  0.86226270  0.99440926    -0.03200
H1850       H  0.06046913  0.80949954  0.02913869     0.09000
H1851       H  0.18232148  0.76680798  0.03480732     0.07000
Br1852     Br  0.14080354  0.71310554  0.06942010    -0.03600
C1853       C  0.40877385  0.78811643  0.97573869    -0.10200
C1854       C  0.40064809  0.76584610  0.94863756     0.06000
C1855       C  0.36604675  0.75671099  0.94223230    -0.04000
C1856       C  0.33958427  0.77544166  0.95815998    -0.08500
C1857       C  0.34799967  0.80212997  0.98090463     0.05100
C1858       C  0.38227489  0.80614787  0.99237009    -0.03500
Br1859     Br  0.39439185  0.83639382  0.02935470    -0.03200
H1860       H  0.43558326  0.79393686  0.98169412     0.09000
H1861       H  0.31284913  0.77104395  0.95080162     0.07000
Br1862     Br  0.35365711  0.72028518  0.91129187    -0.03600
C1863       C  0.28277248  0.97913065  0.09328069    -0.10200
C1864       C  0.26780623  0.94692892  0.10037157     0.06000
C1865       C  0.26391073  0.93576377  0.13497129    -0.04000
C1866       C  0.27944364  0.95409828  0.16129717    -0.08500
C1867       C  0.29910975  0.98304200  0.15346069     0.05100
C1868       C  0.29847524  0.99743754  0.11998749    -0.03500
Br1869     Br  0.31905494  0.04116087  0.10967549    -0.03200
H1870       H  0.28466131  0.98860169  0.06687634     0.09000
H1871       H  0.27856663  0.94403197  0.18748132     0.07000
Br1872     Br  0.23996941  0.89486074  0.14857048    -0.03600
C1873       C  0.20327029  0.97089332  0.90787326    -0.10200
C1874       C  0.22720034  0.94525996  0.89813419     0.06000
C1875       C  0.23468609  0.93910862  0.86292851    -0.04000
C1876       C  0.21624336  0.95711742  0.83778296    -0.08500
C1877       C  0.18945120  0.97973009  0.84762931     0.05100
C1878       C  0.18361688  0.98755849  0.88278609    -0.03500
Br1879     Br  0.14774971  0.01840297  0.89840114    -0.03200
H1880       H  0.19758451  0.97562776  0.93501179     0.09000
H1881       H  0.22088094  0.95129872  0.81066236     0.07000
Br1882     Br  0.26756361  0.90474176  0.84762372    -0.03600
C1883       C  0.24289789  0.79222443  0.87752194    -0.10200
C1884       C  0.27106134  0.81400630  0.88541487     0.06000
C1885       C  0.29577525  0.81968476  0.85871861    -0.04000
C1886       C  0.29059747  0.80644821  0.82494846    -0.08500
C1887       C  0.26185782  0.78562955  0.81691940     0.05100
C1888       C  0.23847788  0.77788363  0.84416401    -0.03500
Br1889     Br  0.20032281  0.74690376  0.83735985    -0.03200
H1890       H  0.22360441  0.78678104  0.89724742     0.09000
H1891       H  0.30934057  0.81241942  0.80492954     0.07000
Br1892     Br  0.33820698  0.84363098  0.86718517    -0.03600
C1893       C  0.25294886  0.79298566  0.11977284    -0.10200
C1894       C  0.22542069  0.81614140  0.11229040     0.06000
C1895       C  0.19983600  0.82084439  0.13858923    -0.04000
C1896       C  0.20438502  0.80595816  0.17213994    -0.08500
C1897       C  0.23348040  0.78467045  0.18009461     0.05100
C1898       C  0.25658653  0.77693375  0.15238156    -0.03500
Br1899     Br  0.29319033  0.74309479  0.15647411    -0.03200
H1900       H  0.27245649  0.78753842  0.10013889     0.09000
H1901       H  0.18500396  0.81092636  0.19200562     0.07000
Br1902     Br  0.15773638  0.84629526  0.12955749    -0.03600
C1903       C  0.39132916  0.92395594  0.04211338    -0.10200
C1904       C  0.36373240  0.93755987  0.02223136     0.06000
C1905       C  0.37105642  0.96831509  0.00295427    -0.04000
C1906       C  0.40502640  0.98234412  0.00199267    -0.08500
C1907       C  0.43323995  0.96677384  0.01955284     0.05100
C1908       C  0.42547251  0.93727626  0.04022661    -0.03500
Br1909     Br  0.45995105  0.91232631  0.06564726    -0.03200
H1910       H  0.38656332  0.90199414  0.05889377     0.09000
H1911       H  0.40969038  0.00527609  0.98636829     0.07000
Br1912     Br  0.33629933  0.99302863  0.97693122    -0.03600
C1913       C  0.02420062  0.90043605  0.72623442    -0.10200
C1914       C  0.06058312  0.89998031  0.72301696     0.06000
C1915       C  0.07817074  0.86809563  0.71641567    -0.04000
C1916       C  0.05928857  0.83823036  0.71316801    -0.08500
C1917       C  0.02371241  0.84012051  0.70888286     0.05100
C1918       C  0.00551125  0.87058498  0.71813867    -0.03500
Br1919     Br  0.95584272  0.87268778  0.71813968    -0.03200
H1920       H  0.01036314  0.92427611  0.73272415     0.09000
H1921       H  0.07285194  0.81443019  0.70860373     0.07000
Br1922     Br  0.12690863  0.86207990  0.70617324    -0.03600
C1923       C  0.99123956  0.61858460  0.69619556    -0.10200
C1924       C  0.97892179  0.65178768  0.70536757     0.06000
C1925       C  0.95589792  0.65623920  0.73317982    -0.04000
C1926       C  0.94006407  0.62706720  0.74675636    -0.08500
C1927       C  0.94835071  0.59406292  0.73367159     0.05100
C1928       C  0.97653920  0.58934272  0.71103596    -0.03500
Br1929     Br  0.99353226  0.54439123  0.69714994    -0.03200
H1930       H  0.01024280  0.61540356  0.67557578     0.09000
H1931       H  0.91931801  0.63027950  0.76545125     0.07000
Br1932     Br  0.94232021  0.70104200  0.75064612    -0.03600
C1933       C  0.15033435  0.72293324  0.53617345    -0.10200
C1934       C  0.14498438  0.68852871  0.52558061     0.06000
C1935       C  0.11124005  0.67455937  0.52661567    -0.04000
C1936       C  0.08399900  0.69432178  0.53895970    -0.08500
C1937       C  0.09035042  0.72600912  0.55434267     0.05100
C1938       C  0.12313235  0.74154303  0.55167308    -0.03500
Br1939     Br  0.13231336  0.78635271  0.57115252    -0.03200
H1940       H  0.17608002  0.73403416  0.53530167     0.09000
H1941       H  0.05849369  0.68294645  0.54059528     0.07000
Br1942     Br  0.09978577  0.62750578  0.51748341    -0.03600
C1943       C  0.84459226  0.77389575  0.53707589    -0.10200
C1944       C  0.85425887  0.80055920  0.51478655     0.06000
C1945       C  0.88946610  0.80769460  0.50857105    -0.04000
C1946       C  0.91437134  0.79203752  0.52908628    -0.08500
C1947       C  0.90395630  0.76988790  0.55552472     0.05100
C1948       C  0.86943419  0.75860537  0.55801174    -0.03500
Br1949     Br  0.85402826  0.72492638  0.59085515    -0.03200
H1950       H  0.81741524  0.76798840  0.54122786     0.09000
H1951       H  0.94133367  0.79953275  0.52647503     0.07000
Br1952     Br  0.90489219  0.84086514  0.47533535    -0.03600
C1953       C  0.15579854  0.74711870  0.73021678    -0.10200
C1954       C  0.18360791  0.76456207  0.71457563     0.06000
C1955       C  0.17698115  0.78377866  0.68418144    -0.04000
C1956       C  0.14352384  0.78412828  0.66940479    -0.08500
C1957       C  0.11552250  0.76616226  0.68464060     0.05100
C1958       C  0.12220376  0.74793871  0.71603785    -0.03500
Br1959     Br  0.08739668  0.72295693  0.74141589    -0.03200
H1960       H  0.16039486  0.73235845  0.75372837     0.09000
H1961       H  0.13933420  0.79915971  0.64608257     0.07000
Br1962     Br  0.21237175  0.81082124  0.66247255    -0.03600
C1963       C  0.03736995  0.60191352  0.58565912    -0.10200
C1964       C  0.01767418  0.63074754  0.57354649     0.06000
C1965       C  0.99764357  0.62526018  0.54308949    -0.04000
C1966       C  0.99741099  0.59252867  0.52643980    -0.08500
C1967       C  0.01649089  0.56378141  0.53883099     0.05100
C1968       C  0.03694640  0.56902240  0.56873128    -0.03500
Br1969     Br  0.06436200  0.53193308  0.58778396    -0.03200
H1970       H  0.05298171  0.60476587  0.60873832     0.09000
H1971       H  0.98096626  0.58910553  0.50400459     0.07000
Br1972     Br  0.96769707  0.66018936  0.52321078    -0.03600
C1973       C  0.83486094  0.75482225  0.72460878    -0.10200
C1974       C  0.80964941  0.73142424  0.71296465     0.06000
C1975       C  0.82016756  0.70600404  0.68844974    -0.04000
C1976       C  0.85475542  0.70470875  0.67615544    -0.08500
C1977       C  0.87951403  0.72945650  0.68624647     0.05100
C1978       C  0.86886161  0.75477626  0.71104839    -0.03500
Br1979     Br  0.89774792  0.79251272  0.72538636    -0.03200
H1980       H  0.82744029  0.77464326  0.74330547     0.09000
H1981       H  0.86197385  0.68487086  0.65743615     0.07000
Br1982     Br  0.78842218  0.67377648  0.66878787    -0.03600
C1983       C  0.88051290  0.95761822  0.50618381    -0.10200
C1984       C  0.87178782  0.93417546  0.47958494     0.06000
C1985       C  0.89737164  0.92723433  0.45388247    -0.04000
C1986       C  0.93145554  0.93977119  0.45759255    -0.08500
C1987       C  0.94044571  0.96226669  0.48481360     0.05100
C1988       C  0.91382373  0.97233974  0.50823338    -0.03500
Br1989     Br  0.92119160  0.00756249  0.54259978    -0.03200
H1990       H  0.86133138  0.96459699  0.52566402     0.09000
H1991       H  0.95075618  0.93214516  0.43868979     0.07000
Br1992     Br  0.88674734  0.90345709  0.41151321    -0.03600
C1993       C  0.07913310  0.05249370  0.53883937    -0.10200
C1994       C  0.07399127  0.03093030  0.50972309     0.06000
C1995       C  0.10278028  0.02494775  0.48755951    -0.04000
C1996       C  0.13430652  0.04226823  0.49287986    -0.08500
C1997       C  0.13924342  0.06490130  0.52117220     0.05100
C1998       C  0.11150456  0.06849463  0.54514066    -0.03500
Br1999     Br  0.11779340  0.09120425  0.58877864    -0.03200
H2000       H  0.05812220  0.05624216  0.55725134     0.09000
H2001       H  0.15530160  0.03772843  0.47458641     0.07000
Br2002     Br  0.10189618  0.99070568  0.45141561    -0.03600
C2003       C  0.02757452  0.99196066  0.58961092    -0.10200
C2004       C  0.04568193  0.97969518  0.56036928     0.06000
C2005       C  0.07910578  0.96495702  0.56575872    -0.04000
C2006       C  0.09446247  0.96534379  0.59909630    -0.08500
C2007       C  0.07655909  0.97867902  0.62835276     0.05100
C2008       C  0.04181124  0.99050470  0.62308137    -0.03500
Br2009     Br  0.01098965  0.00448253  0.65998255    -0.03200
H2010       H  0.00181818  0.00306325  0.58634159     0.09000
H2011       H  0.12060994  0.95513833  0.60206567     0.07000
Br2012     Br  0.10424248  0.94244307  0.52910605    -0.03600
C2013       C  0.01546136  0.08965050  0.47941732    -0.10200
C2014       C  0.02355225  0.06027698  0.45881747     0.06000
C2015       C  0.03604287  0.06692603  0.42480126    -0.04000
C2016       C  0.03871418  0.10128480  0.41225508    -0.08500
C2017       C  0.02845327  0.13049229  0.43186501     0.05100
C2018       C  0.01773812  0.12409027  0.46655891    -0.03500
Br2019     Br  0.00651339  0.16088586  0.49844915    -0.03200
H2020       H  0.00669182  0.08573345  0.50584444     0.09000
H2021       H  0.04839115  0.10507476  0.38634672     0.07000
Br2022     Br  0.05048824  0.03149009  0.39307101    -0.03600
C2023       C  0.99595636  0.86778441  0.54116330    -0.10200
C2024       C  0.97902956  0.86718873  0.57377248     0.06000
C2025       C  0.96657417  0.89977339  0.58655271    -0.04000
C2026       C  0.97229736  0.93107993  0.56785841    -0.08500
C2027       C  0.99029816  0.93150969  0.53591948     0.05100
C2028       C  0.00159332  0.89899389  0.52265337    -0.03500
Br2029     Br  0.02627967  0.89576618  0.47956746    -0.03200
H2030       H  0.00584776  0.84372293  0.53007733     0.09000
H2031       H  0.96285863  0.95531230  0.57876027     0.07000
Br2032     Br  0.94157643  0.90393115  0.62938014    -0.03600
C2033       C  0.97891175  0.09411088  0.28275819    -0.10200
C2034       C  0.94628484  0.10130180  0.26854500     0.06000
C2035       C  0.93474336  0.13604040  0.26518355    -0.04000
C2036       C  0.95246841  0.16219942  0.28161312    -0.08500
C2037       C  0.98178031  0.15406211  0.30068955     0.05100
C2038       C  0.99716717  0.12084547  0.29848490    -0.03500
Br2039     Br  0.04262495  0.11145161  0.31596379    -0.03200
H2040       H  0.98905347  0.06768918  0.28356368     0.09000
H2041       H  0.94198896  0.18842739  0.28152239     0.07000
Br2042     Br  0.89506953  0.15006071  0.23954855    -0.03600
C2043       C  0.77614141  0.03076222  0.15710606    -0.10200
C2044       C  0.80773883  0.01452746  0.14880349     0.06000
C2045       C  0.81612796  0.00730479  0.11400477    -0.04000
C2046       C  0.79678062  0.02240016  0.08795054    -0.08500
C2047       C  0.76901732  0.04397311  0.09657622     0.05100
C2048       C  0.75615373  0.04503150  0.13065461    -0.03500
Br2049     Br  0.71167656  0.06469634  0.14153231    -0.03200
H2050       H  0.76821699  0.03423162  0.18389311     0.09000
H2051       H  0.80521660  0.01973816  0.06124592     0.07000
Br2052     Br  0.85365275  0.97814586  0.09992880    -0.03600
C2053       C  0.76099624  0.94735571  0.37326784    -0.10200
C2054       C  0.77434424  0.95509661  0.40607766     0.06000
C2055       C  0.80021838  0.98010061  0.40973585    -0.04000
C2056       C  0.81753478  0.99137224  0.38029274    -0.08500
C2057       C  0.80752406  0.97937068  0.34758405     0.05100
C2058       C  0.77711791  0.96009545  0.34371401    -0.03500
Br2059     Br  0.75924976  0.94698646  0.29937202    -0.03200
H2060       H  0.74024713  0.92870137  0.37056858     0.09000
H2061       H  0.83993486  0.00799161  0.38300880     0.07000
Br2062     Br  0.81417413  0.99763102  0.45388521    -0.03600
C2063       C  0.94820724  0.86862572  0.24424956    -0.10200
C2064       C  0.95690739  0.90182706  0.23218219     0.06000
C2065       C  0.98381088  0.90600509  0.20818464    -0.04000
C2066       C  0.99582548  0.87696074  0.19055023    -0.08500
C2067       C  0.98300522  0.84410478  0.19872056     0.05100
C2068       C  0.96218585  0.83932818  0.22816713    -0.03500
Br2069     Br  0.94953237  0.79434773  0.24514791    -0.03200
H2070       H  0.92837880  0.86555217  0.26401811     0.09000
H2071       H  0.01331499  0.88019140  0.16894708     0.07000
Br2072     Br  0.00254586  0.95034275  0.19635033    -0.03600
C2073       C  0.79632239  0.87965982  0.24523804    -0.10200
C2074       C  0.82351729  0.88335175  0.26930664     0.06000
C2075       C  0.83117919  0.85430360  0.29081873    -0.04000
C2076       C  0.81291678  0.82266768  0.28692729    -0.08500
C2077       C  0.78654431  0.81910773  0.26201011     0.05100
C2078       C  0.77808595  0.84843815  0.24158396    -0.03500
Br2079     Br  0.74249142  0.84698423  0.20690774    -0.03200
H2080       H  0.78949209  0.90109416  0.22825860     0.09000
H2081       H  0.81961145  0.80062192  0.30317157     0.07000
Br2082     Br  0.86550660  0.85633541  0.32650815    -0.03600
C2083       C  0.82259304  0.13741606  0.20364443    -0.10200
C2084       C  0.81687861  0.11126372  0.22873610     0.06000
C2085       C  0.79571924  0.12018744  0.25768623    -0.04000
C2086       C  0.78186218  0.15396119  0.26122539    -0.08500
C2087       C  0.78860942  0.18036487  0.23707974     0.05100
C2088       C  0.80966222  0.17179581  0.20810916    -0.03500
Br2089     Br  0.82484129  0.20671690  0.17616322    -0.03200
H2090       H  0.83922451  0.13173765  0.18159002     0.09000
H2091       H  0.76502115  0.15959647  0.28306371     0.07000
Br2092     Br  0.78591031  0.08869472  0.29508267    -0.03600
C2093       C  0.96095709  0.99355919  0.37022797    -0.10200
C2094       C  0.93478663  0.01906451  0.36536181     0.06000
C2095       C  0.92612800  0.04021338  0.39449571    -0.04000
C2096       C  0.94367242  0.03578624  0.42664549    -0.08500
C2097       C  0.96967166  0.00998405  0.43111802     0.05100
C2098       C  0.97769656  0.98862859  0.40224662    -0.03500
Br2099     Br  0.01186614  0.95186495  0.40485254    -0.03200
H2100       H  0.96806862  0.97636534  0.34904691     0.09000
H2101       H  0.93670488  0.05235689  0.44835998     0.07000
Br2102     Br  0.89100788  0.07589269  0.39197925    -0.03600
C2103       C  0.08939784  0.30147046  0.96564452    -0.10200
C2104       C  0.09695807  0.27022023  0.94938237     0.06000
C2105       C  0.13090371  0.25637975  0.95035621    -0.04000
C2106       C  0.15781678  0.27684776  0.96309831    -0.08500
C2107       C  0.15062770  0.31083102  0.97450712     0.05100
C2108       C  0.11586275  0.32228228  0.97717084    -0.03500
Br2109     Br  0.10166620  0.36621827  0.99467416    -0.03200
H2110       H  0.06297128  0.31103075  0.96694757     0.09000
H2111       H  0.18425504  0.26688693  0.96273875     0.07000
Br2112     Br  0.14087155  0.20954784  0.93641614    -0.03600
C2113       C  0.02807938  0.15438611  0.77261036    -0.10200
C2114       C  0.01572600  0.14636393  0.80575022     0.06000
C2115       C  0.00988035  0.11141442  0.81487731    -0.04000
C2116       C  0.02156687  0.08511566  0.79334371    -0.08500
C2117       C  0.04037788  0.09352446  0.76391464     0.05100
C2118       C  0.04066780  0.12779856  0.75148454    -0.03500
Br2119     Br  0.06086306  0.13926639  0.70767451    -0.03200
H2120       H  0.03052044  0.18119568  0.76439239     0.09000
H2121       H  0.01979633  0.05831376  0.80181273     0.07000
Br2122     Br  0.98839100  0.09696166  0.85659499    -0.03600
C2123       C  0.96764550  0.34160283  0.77261869    -0.10200
C2124       C  0.98208205  0.34980366  0.80470258     0.06000
C2125       C  0.98478121  0.38486043  0.81498305    -0.04000
C2126       C  0.96906788  0.41058826  0.79559322    -0.08500
C2127       C  0.94952470  0.40162301  0.76703756     0.05100
C2128       C  0.95105785  0.36764664  0.75365043    -0.03500
Br2129     Br  0.93016830  0.35563267  0.71073851    -0.03200
H2130       H  0.96651258  0.31480093  0.76391624     0.09000
H2131       H  0.96920296  0.43714945  0.80484733     0.07000
Br2132     Br  0.00589828  0.39987816  0.85664721    -0.03600
C2133       C  0.90921353  0.20442940  0.97167986    -0.10200
C2134       C  0.89918601  0.22782967  0.94602375     0.06000
C2135       C  0.86397236  0.23655629  0.94144697    -0.04000
C2136       C  0.83886376  0.21852935  0.95961613    -0.08500
C2137       C  0.84887742  0.19184006  0.98189311     0.05100
C2138       C  0.88412324  0.18613570  0.98957641    -0.03500
Br2139     Br  0.89967886  0.15306263  0.02286515    -0.03200
H2140       H  0.93643348  0.19844205  0.97593502     0.09000
H2141       H  0.81162872  0.22351486  0.95434850     0.07000
Br2142     Br  0.84851275  0.27182529  0.91045996    -0.03600
C2143       C  0.14550105  0.22130021  0.83876964    -0.10200
C2144       C  0.11519378  0.22584158  0.81890886     0.06000
C2145       C  0.11985717  0.23431735  0.78345365    -0.04000
C2146       C  0.15345392  0.23960139  0.76964552    -0.08500
C2147       C  0.18371166  0.23692870  0.79009139     0.05100
C2148       C  0.17910683  0.22681736  0.82516649    -0.03500
Br2149     Br  0.21686401  0.21933447  0.85652630    -0.03200
H2150       H  0.14307365  0.21426893  0.86562489     0.09000
H2151       H  0.15594073  0.24658442  0.74255153     0.07000
Br2152     Br  0.08164220  0.23841199  0.75197250    -0.03600
C2153       C  0.99915642  0.36905885  0.96406388    -0.10200
C2154       C  0.02293608  0.36278653  0.93682520     0.06000
C2155       C  0.04609251  0.39027971  0.92861363    -0.04000
C2156       C  0.04140803  0.42393786  0.94344645    -0.08500
C2157       C  0.01554269  0.43057990  0.96867381     0.05100
C2158       C  0.99614729  0.40179479  0.98039266    -0.03500
Br2159     Br  0.96599235  0.40521505  0.01993258    -0.03200
H2160       H  0.98223205  0.34841159  0.97264656     0.09000
H2161       H  0.05815910  0.44490984  0.93533087     0.07000
Br2162     Br  0.08540077  0.38314106  0.89844105    -0.03600
C2163       C  0.85667258  0.29040161  0.82722025    -0.10200
C2164       C  0.88590127  0.27343075  0.81250389     0.06000
C2165       C  0.88027720  0.25607948  0.78043358    -0.04000
C2166       C  0.84624091  0.25236106  0.76701523    -0.08500
C2167       C  0.81660915  0.26563331  0.78442326     0.05100
C2168       C  0.82261474  0.28602305  0.81424203    -0.03500
Br2169     Br  0.78528664  0.30853010  0.83853730    -0.03200
H2170       H  0.86019006  0.30684808  0.84959962     0.09000
H2171       H  0.84282586  0.23838625  0.74289376     0.07000
Br2172     Br  0.91782453  0.23837456  0.75238836    -0.03600
C2173       C  0.89086354  0.07055784  0.04265943    -0.10200
C2174       C  0.86296902  0.05722312  0.02328736     0.06000
C2175       C  0.87004174  0.02708565  0.00292036    -0.04000
C2176       C  0.90416917  0.01353709  0.00017355    -0.08500
C2177       C  0.93248119  0.02961892  0.01629983     0.05100
C2178       C  0.92528674  0.05813529  0.03831712    -0.03500
Br2179     Br  0.96160480  0.08256908  0.06136538    -0.03200
H2180       H  0.88621264  0.09207708  0.06020389     0.09000
H2181       H  0.90890520  0.99090142  0.98398980     0.07000
Br2182     Br  0.83502781  0.00301524  0.97730435    -0.03600
C2183       C  0.01810449  0.99448153  0.90314656    -0.10200
C2184       C  0.03049000  0.01549425  0.93020786     0.06000
C2185       C  0.05573302  0.04052891  0.92184373    -0.04000
C2186       C  0.06740984  0.04441617  0.88732900    -0.08500
C2187       C  0.05702272  0.02170263  0.86059772     0.05100
C2188       C  0.03151692  0.99665373  0.86910807    -0.03500
Br2189     Br  0.01583240  0.96226031  0.83681139    -0.03200
H2190       H  0.99893762  0.97485538  0.90898752     0.09000
H2191       H  0.08677277  0.06394076  0.88190440     0.07000
Br2192     Br  0.07853944  0.06704022  0.95687304    -0.03600
C2193       C  0.03534492  0.92842986  0.06392033    -0.10200
C2194       C  0.01959040  0.93156058  0.03118591     0.06000
C2195       C  0.00907302  0.90044495  0.01491117    -0.04000
C2196       C  0.01097454  0.86818520  0.03251255    -0.08500
C2197       C  0.02512950  0.86501715  0.06615309     0.05100
C2198       C  0.03934971  0.89577340  0.08067575    -0.03500
Br2199     Br  0.06607430  0.89539785  0.12239196    -0.03200
H2200       H  0.04454210  0.95160922  0.07672830     0.09000
H2201       H  0.00081962  0.84538602  0.01971257     0.07000
Br2202     Br  0.99042819  0.90084854  0.96886503    -0.03600
C2203       C  0.12754598  0.96138308  0.00024507    -0.10200
C2204       C  0.13667522  0.93843679  0.97312565     0.06000
C2205       C  0.11110742  0.93229933  0.94743562    -0.04000
C2206       C  0.07683490  0.94581057  0.95133717    -0.08500
C2207       C  0.06732828  0.96673742  0.97998127     0.05100
C2208       C  0.09381497  0.97558478  0.00354555    -0.03500
Br2209     Br  0.08527462  0.00759867  0.04090665    -0.03200
H2210       H  0.14644245  0.96744473  0.01998983     0.09000
H2211       H  0.05747750  0.93936530  0.93220828     0.07000
Br2212     Br  0.12146591  0.90552779  0.90659643    -0.03600
C2213       C  0.98135182  0.00195411  0.09087690    -0.10200
C2214       C  0.96866691  0.98054211  0.06442698     0.06000
C2215       C  0.94402759  0.95521506  0.07356820    -0.04000
C2216       C  0.93191282  0.95265980  0.10815483    -0.08500
C2217       C  0.94161662  0.97682300  0.13392946     0.05100
C2218       C  0.96765046  0.00117881  0.12475332    -0.03500
Br2219     Br  0.98468691  0.03610059  0.15583782    -0.03200
H2220       H  0.00127765  0.02067602  0.08467631     0.09000
H2221       H  0.91302410  0.93290295  0.11436174     0.07000
Br2222     Br  0.92431308  0.92530485  0.03935320    -0.03600
C2223       C  0.95165240  0.10837752  0.92787468    -0.10200
C2224       C  0.97453144  0.13508250  0.93802711     0.06000
C2225       C  0.99815911  0.12665561  0.96514094    -0.04000
C2226       C  0.99990905  0.09265940  0.97900477    -0.08500
C2227       C  0.98024556  0.06514732  0.96571015     0.05100
C2228       C  0.95529910  0.07365292  0.94021909    -0.03500
Br2229     Br  0.92781574  0.03832308  0.91911953    -0.03200
H2230       H  0.93259629  0.11378213  0.90797549     0.09000
H2231       H  0.01825181  0.08720971  0.99955683     0.07000
Br2232     Br  0.03112936  0.15896094  0.98348417    -0.03600
loop_ 
_geom_bond_atom_site_label_1 
_geom_bond_atom_site_label_2 
_geom_bond_distance 
_geom_bond_site_symmetry_2 
_ccdc_geom_bond_type 
C1            C2   1.434   1_554  A
C1            C6   1.435   1_545  A
C1         C2177   1.514       .  S
C2            C3   1.439   1_655  A
C2         C2227   1.526       .  S
C3            C4   1.440   1_545  A
C3         C2184   1.514       .  S
C4            C5   1.438   1_556  A
C4         C2207   1.520       .  S
C5            C6   1.433   1_455  A
C5         C2194   1.525       .  S
C6         C2214   1.512       .  S
O7           C15   1.270       .  A
O7          Co27   2.019       .  S
O8           C16   1.267       .  A
O8          Co28   1.999       .  S
O9           C17   1.260       .  A
O9          Co29   1.986       .  S
O10          C18   1.258       .  A
O10         Co30   1.977       .  S
O11          C17   1.278       .  A
O11         Co28   2.079       .  S
O12          C18   1.275       .  A
O12         Co27   2.066       .  S
O13          C16   1.256   1_455  A
O13         Co30   1.946       .  S
O14          C15   1.251   1_655  A
O14         Co29   1.932       .  S
C15        C2114   1.447       .  S
C16        C2124   1.446       .  S
C17        C2164   1.534       .  S
C18        C2144   1.519       .  S
O19          C32   1.254       .  A
O19         Co27   1.942       .  S
O20          C33   1.254       .  A
O20         Co28   1.936       .  S
O21          C34   1.278       .  A
O21         Co29   2.083       .  S
O22          C35   1.274       .  A
O22         Co30   2.068       .  S
O23          C35   1.263       .  A
O23         Co28   1.983   1_455  S
O24          C34   1.257       .  A
O24         Co27   1.976   1_655  S
O25          C32   1.271       .  A
O25         Co30   2.021       .  S
O26          C33   1.267       .  A
O26         Co29   2.007       .  S
Co27         O31   2.128   1_455  S
Co28         O31   2.117       .  S
Co29         O31   2.121       .  S
Co30         O31   2.117   1_455  S
C32        C2104   1.446       .  S
C33        C2134   1.438       .  S
C34        C2224   1.531       .  S
C35        C2154   1.527       .  S
O36          C44   1.272       .  A
O36         Co56   2.020       .  S
O37          C45   1.271       .  A
O37         Co57   2.011       .  S
O38          C46   1.256       .  A
O38         Co58   1.964       .  S
O39          C47   1.255       .  A
O39         Co59   1.972       .  S
O40          C46   1.273       .  A
O40         Co57   2.073       .  S
O41          C47   1.270       .  A
O41         Co56   2.056       .  S
O42          C45   1.252   1_545  A
O42         Co59   1.936       .  S
O43          C44   1.253   1_565  A
O43         Co58   1.935       .  S
C44        C2044   1.444       .  S
C45        C2057   1.440       .  S
C46        C2074   1.516       .  S
C47        C2084   1.511       .  S
O48          C61   1.257       .  A
O48         Co56   1.941       .  S
O49          C62   1.250       .  A
O49         Co57   1.933       .  S
O50          C63   1.271       .  A
O50         Co58   2.057       .  S
O51          C64   1.274       .  A
O51         Co59   2.078       .  S
O52          C64   1.259       .  A
O52         Co57   1.974   1_545  S
O53          C63   1.258       .  A
O53         Co56   1.976   1_565  S
O54          C61   1.272       .  A
O54         Co59   2.014       .  S
O55          C62   1.272       .  A
O55         Co58   2.010       .  S
Co56         O60   2.117   1_545  S
Co57         O60   2.116       .  S
Co58         O60   2.100       .  S
Co59         O60   2.109   1_545  S
C61        C2034   1.447       .  S
C62        C2064   1.436       .  S
C63        C2217   1.520       .  S
C64        C2094   1.525       .  S
C65          C66   1.442   1_565  A
C65          C70   1.440       .  A
C65        C1987   1.516       .  S
C66          C67   1.442   1_655  A
C66        C2097   1.524       .  S
C67          C68   1.444       .  A
C67        C2014   1.529       .  S
C68          C69   1.442   1_545  A
C68        C1994   1.520       .  S
C69          C70   1.438   1_455  A
C69        C2004   1.520       .  S
C70        C2027   1.531       .  S
O71          C79   1.278       .  A
O71         Co91   2.022       .  S
O72          C80   1.274       .  A
O72         Co92   2.011       .  S
O73          C81   1.254       .  A
O73         Co93   1.972       .  S
O74          C82   1.253       .  A
O74         Co94   1.962       .  S
O75          C81   1.267       .  A
O75         Co92   2.049       .  S
O76          C82   1.266       .  A
O76         Co91   2.053       .  S
O77          C80   1.252   1_455  A
O77         Co94   1.932       .  S
O78          C79   1.251   1_655  A
O78         Co93   1.929       .  S
C79        C1917   1.444       .  S
C80        C1924   1.435       .  S
C81        C1977   1.513       .  S
C82        C1957   1.515       .  S
O83          C96   1.252       .  A
O83         Co91   1.918       .  S
O84          C97   1.251       .  A
O84         Co92   1.914       .  S
O85          C98   1.272       .  A
O85         Co93   2.080       .  S
O86          C99   1.270       .  A
O86         Co94   2.077       .  S
O87          C99   1.255       .  A
O87         Co92   1.975   1_455  S
O88          C98   1.254       .  A
O88         Co91   1.975   1_655  S
O89          C96   1.276       .  A
O89         Co94   2.020       .  S
O90          C97   1.274       .  A
O90         Co93   2.018       .  S
Co91         O95   2.108   1_455  S
Co92         O95   2.104       .  S
Co93         O95   2.129       .  S
Co94         O95   2.115   1_455  S
C96        C1937   1.431       .  S
C97        C1947   1.426       .  S
C98        C2024   1.531       .  S
C99        C1964   1.530       .  S
O100        C108   1.267       .  A
O100       Co120   1.998       .  S
O101        C109   1.269       .  A
O101       Co121   2.014       .  S
O102        C110   1.262       .  A
O102       Co122   1.977       .  S
O103        C111   1.260       .  A
O103       Co123   1.979       .  S
O104        C110   1.274       .  A
O104       Co121   2.063       .  S
O105        C111   1.277       .  A
O105       Co120   2.077       .  S
O106        C109   1.248   1_554  A
O106       Co123   1.926       .  S
O107        C108   1.256   1_556  A
O107       Co122   1.941       .  S
C108       C1847   1.443       .  S
C109       C1857   1.434       .  S
C110       C1884   1.517       .  S
C111       C1894   1.525       .  S
O112        C125   1.257       .  A
O112       Co120   1.948       .  S
O113        C126   1.257       .  A
O113       Co121   1.943       .  S
O114        C127   1.275       .  A
O114       Co122   2.061       .  S
O115        C128   1.280       .  A
O115       Co123   2.085       .  S
O116        C128   1.259       .  A
O116       Co121   1.982   1_554  S
O117        C127   1.264       .  A
O117       Co120   1.983   1_556  S
O118        C125   1.266       .  A
O118       Co123   1.997       .  S
O119        C126   1.267       .  A
O119       Co122   2.003       .  S
Co120       O124   2.120   1_554  S
Co121       O124   2.119       .  S
Co122       O124   2.117       .  S
Co123       O124   2.109   1_554  S
C125       C1864   1.447       .  S
C126       C1874   1.438       .  S
C127       C2204   1.519       .  S
C128       C1904   1.536       .  S
O129        C137   1.249   1_455  A
O129       Co149   1.933       .  S
O130        C138   1.253   1_655  A
O130       Co150   1.924       .  S
O131        C139   1.271       .  A
O131       Co151   2.057       .  S
O132        C140   1.278       .  A
O132       Co152   2.089       .  S
O133        C139   1.259       .  A
O133       Co150   1.973       .  S
O134        C140   1.254       .  A
O134       Co149   1.971       .  S
O135        C138   1.267       .  A
O135       Co152   2.004       .  S
O136        C137   1.272       .  A
O136       Co151   2.009       .  S
C137       C2067   1.436       .  S
C138       C1804   1.429       .  S
C139       C1824   1.514       .  S
C140       C1834   1.535       .  S
O141        C154   1.272       .  A
O141       Co149   2.019       .  S
O142        C155   1.269       .  A
O142       Co150   2.005       .  S
O143        C156   1.260       .  A
O143       Co151   1.980   1_455  S
O144        C157   1.256       .  A
O144       Co152   1.977   1_655  S
O145        C157   1.273       .  A
O145       Co150   2.062       .  S
O146        C156   1.275       .  A
O146       Co149   2.078       .  S
O147        C154   1.250       .  A
O147       Co152   1.922       .  S
O148        C155   1.255       .  A
O148       Co151   1.936       .  S
Co149       O153   2.109   1_455  S
Co150       O153   2.112       .  S
Co151       O153   2.114       .  S
Co152       O153   2.120   1_455  S
C154       C1844   1.432       .  S
C155       C1794   1.436       .  S
C156       C2197   1.530       .  S
C157       C1814   1.519       .  S
C158        C159   1.459       .  A
C158        C163   1.451       .  A
C158       C1764   1.543       .  S
C159        C160   1.453       .  A
C159       C1897   1.531       .  S
C160        C161   1.448       .  A
C160       C1837   1.539       .  S
C161        C162   1.449       .  A
C161       C1777   1.542       .  S
C162        C163   1.447       .  A
C162       C1784   1.523       .  S
C163       C1757   1.545       .  S
O164        C172   1.261       .  A
O164       Co184   1.951       .  S
O165        C173   1.254       .  A
O165       Co185   1.943       .  S
O166        C174   1.277       .  A
O166       Co186   2.088       .  S
O167        C175   1.272       .  A
O167       Co187   2.054       .  S
O168        C174   1.261       .  A
O168       Co185   1.980       .  S
O169        C175   1.266       .  A
O169       Co184   1.994       .  S
O170        C173   1.272       .  A
O170       Co187   2.008       .  S
O171        C172   1.268       .  A
O171       Co186   1.990       .  S
C172       C1934   1.450       .  S
C173       C1714   1.444       .  S
C174       C1744   1.533       .  S
C175       C1787   1.525       .  S
O176        C189   1.271       .  A
O176       Co184   2.010       .  S
O177        C190   1.273       .  A
O177       Co185   2.013       .  S
O178        C191   1.265       .  A
O178       Co186   1.997       .  S
O179        C192   1.263       .  A
O179       Co187   1.987       .  S
O180        C192   1.271       .  A
O180       Co185   2.062       .  S
O181        C191   1.276       .  A
O181       Co184   2.072       .  S
O182        C189   1.257       .  A
O182       Co187   1.940       .  S
O183        C190   1.254       .  A
O183       Co186   1.941       .  S
Co184       O188   2.122       .  S
Co185       O188   2.116       .  S
Co186       O188   2.119       .  S
Co187       O188   2.112       .  S
C189       C1694   1.441       .  S
C190       C1707   1.445       .  S
C191       C1737   1.540       .  S
C192       C1724   1.524       .  S
C193        C194   1.442       .  A
C193        C198   1.437       .  A
C193       C1667   1.527       .  S
C194        C195   1.437       .  A
C194       C1954   1.504       .  S
C195        C196   1.432       .  A
C195       C1747   1.532       .  S
C196        C197   1.433       .  A
C196       C1674   1.504       .  S
C197        C198   1.433       .  A
C197       C1684   1.517       .  S
C198       C1887   1.519       .  S
O199        C207   1.270       .  A
O199       Co219   2.011       .  S
O200        C208   1.270       .  A
O200       Co220   2.001       .  S
O201        C209   1.255       .  A
O201       Co221   1.968       .  S
O202        C210   1.266       .  A
O202       Co222   1.993       .  S
O203        C209   1.277       .  A
O203       Co220   2.090       .  S
O204        C210   1.274       .  A
O204       Co219   2.061       .  S
O205        C208   1.256       .  A
O205       Co222   1.942       .  S
O206        C207   1.250       .  A
O206       Co221   1.927       .  S
C207       C1854   1.432       .  S
C208       C1614   1.453       .  S
C209       C1634   1.527       .  S
C210       C1654   1.528       .  S
O211        C224   1.256       .  A
O211       Co219   1.940       .  S
O212        C225   1.249       .  A
O212       Co220   1.937       .  S
O213        C226   1.273       .  A
O213       Co221   2.063       .  S
O214        C227   1.276       .  A
O214       Co222   2.074       .  S
O215        C227   1.259       .  A
O215       Co220   1.979       .  S
O216        C226   1.258       .  A
O216       Co219   1.973       .  S
O217        C224   1.267       .  A
O217       Co222   1.996       .  S
O218        C225   1.270       .  A
O218       Co221   2.008       .  S
Co219       O223   2.106       .  S
Co220       O223   2.112       .  S
Co221       O223   2.106       .  S
Co222       O223   2.120       .  S
C224       C1604   1.441       .  S
C225       C1624   1.440       .  S
C226       C1687   1.520       .  S
C227       C1644   1.523       .  S
C228        C229   1.441       .  A
C228        C233   1.441       .  A
C228       C1584   1.524       .  S
C229        C230   1.440       .  A
C229       C1594   1.522       .  S
C230        C231   1.445       .  A
C230       C2167   1.530       .  S
C231        C232   1.449       .  A
C231       C1564   1.535       .  S
C232        C233   1.448       .  A
C232       C1554   1.519       .  S
C233       C1574   1.537       .  S
O234        C242   1.273       .  A
O234       Co254   2.021       .  S
O235        C243   1.273       .  A
O235       Co255   2.013       .  S
O236        C244   1.255       .  A
O236       Co256   1.966       .  S
O237        C245   1.255       .  A
O237       Co257   1.978       .  S
O238        C244   1.270       .  A
O238       Co255   2.069       .  S
O239        C245   1.275       .  A
O239       Co254   2.083       .  S
O240        C243   1.249       .  A
O240       Co257   1.931       .  S
O241        C242   1.250       .  A
O241       Co256   1.923       .  S
C242       C2127   1.436       .  S
C243       C1927   1.437       .  S
C244       C1524   1.518       .  S
C245       C1534   1.537       .  S
O246        C259   1.252       .  A
O246       Co254   1.924       .  S
O247        C260   1.251       .  A
O247       Co255   1.924       .  S
O248        C261   1.272       .  A
O248       Co256   2.070       .  S
O249        C262   1.275       .  A
O249       Co257   2.095       .  S
O250        C262   1.257       .  A
O250       Co255   1.978       .  S
O251        C261   1.258       .  A
O251       Co254   1.986       .  S
O252        C259   1.274       .  A
O252       Co257   2.020       .  S
O253        C260   1.273       .  A
O253       Co256   2.017       .  S
Co254       O258   2.123       .  S
Co255       O258   2.123       .  S
Co256       O258   2.118       .  S
Co257       O258   2.122       .  S
C259       C1514   1.434       .  S
C260       C1504   1.434       .  S
C261       C1597   1.528       .  S
C262       C1544   1.540       .  S
O263        C271   1.249   1_455  A
O263       Co283   1.923       .  S
O264        C272   1.251   1_655  A
O264       Co284   1.926       .  S
O265        C273   1.274       .  A
O265       Co285   2.079       .  S
O266        C274   1.272       .  A
O266       Co286   2.072       .  S
O267        C273   1.254       .  A
O267       Co284   1.971       .  S
O268        C274   1.252       .  A
O268       Co283   1.970       .  S
O269        C272   1.271       .  A
O269       Co286   2.016       .  S
O270        C271   1.272       .  A
O270       Co285   2.020       .  S
C271       C2037   1.434       .  S
C272       C1464   1.434       .  S
C273       C1484   1.528       .  S
C274       C1494   1.524       .  S
O275        C288   1.272       .  A
O275       Co283   2.020       .  S
O276        C289   1.272       .  A
O276       Co284   2.016       .  S
O277        C290   1.254       .  A
O277       Co285   1.978   1_455  S
O278        C291   1.256       .  A
O278       Co286   1.973   1_655  S
O279        C291   1.273       .  A
O279       Co284   2.071       .  S
O280        C290   1.274       .  A
O280       Co283   2.067       .  S
O281        C288   1.253       .  A
O281       Co286   1.934       .  S
O282        C289   1.250       .  A
O282       Co285   1.926       .  S
Co283       O287   2.115       .  S
Co284       O287   2.114   1_655  S
Co285       O287   2.124   1_655  S
Co286       O287   2.121       .  S
C288       C1454   1.443       .  S
C289       C1447   1.434       .  S
C290       C2017   1.523       .  S
C291       C1474   1.528       .  S
C292        C293   1.435       .  A
C292        C297   1.439       .  A
C292       C1394   1.522       .  S
C293        C294   1.437       .  A
C293       C1497   1.519       .  S
C294        C295   1.439       .  A
C294       C1407   1.518       .  S
C295        C296   1.440       .  A
C295       C1427   1.515       .  S
C296        C297   1.440       .  A
C296       C1414   1.536       .  S
C297       C1434   1.512       .  S
O298        C306   1.263   1_554  A
O298       Co318   1.950       .  S
O299        C307   1.250   1_556  A
O299       Co319   1.925       .  S
O300        C308   1.269       .  A
O300       Co320   2.065       .  S
O301        C309   1.267       .  A
O301       Co321   2.047       .  S
O302        C308   1.255       .  A
O302       Co319   1.975       .  S
O303        C309   1.261       .  A
O303       Co318   1.986       .  S
O304        C307   1.278       .  A
O304       Co321   2.020       .  S
O305        C306   1.277       .  A
O305       Co320   2.022       .  S
C306       C2107   1.458       .  S
C307       C1354   1.441       .  S
C308       C1384   1.514       .  S
C309       C1437   1.522       .  S
O310        C323   1.278       .  A
O310       Co318   2.020       .  S
O311        C324   1.275       .  A
O311       Co319   2.009       .  S
O312        C325   1.258       .  A
O312       Co320   1.988   1_554  S
O313        C326   1.255   1_554  A
O313       Co321   1.972       .  S
O314        C326   1.271       .  A
O314       Co319   2.077       .  S
O315        C325   1.269       .  A
O315       Co318   2.049       .  S
O316        C323   1.251       .  A
O316       Co321   1.916       .  S
O317        C324   1.253       .  A
O317       Co320   1.934       .  S
Co318       O322   2.106       .  S
Co319       O322   2.114   1_556  S
Co320       O322   2.117   1_556  S
Co321       O322   2.101       .  S
C323       C1344   1.427       .  S
C324       C1337   1.433       .  S
C325       C1367   1.526       .  S
C326       C1374   1.526       .  S
C327        C328   1.446       .  A
C327        C332   1.442       .  A
C327       C1387   1.528       .  S
C328        C329   1.446       .  A
C328       C2147   1.529       .  S
C329        C330   1.439       .  A
C329       C1304   1.515       .  S
C330        C331   1.437       .  A
C330       C1297   1.533       .  S
C331        C332   1.438       .  A
C331       C1324   1.515       .  S
C332       C1314   1.520       .  S
O333        C341   1.270       .  A
O333       Co353   2.011       .  S
O334        C342   1.269       .  A
O334       Co354   2.007       .  S
O335        C343   1.256       .  A
O335       Co355   1.978       .  S
O336        C344   1.256       .  A
O336       Co356   1.972       .  S
O337        C343   1.276       .  A
O337       Co354   2.085       .  S
O338        C344   1.276       .  A
O338       Co353   2.083       .  S
O339        C342   1.254       .  A
O339       Co356   1.938       .  S
O340        C341   1.252       .  A
O340       Co355   1.925       .  S
C341       C1234   1.431       .  S
C342       C1254   1.441       .  S
C343       C1284   1.534       .  S
C344       C1274   1.529       .  S
O345        C358   1.249       .  A
O345       Co353   1.931       .  S
O346        C359   1.244       .  A
O346       Co354   1.910       .  S
O347        C360   1.275       .  A
O347       Co355   2.084       .  S
O348        C361   1.272       .  A
O348       Co356   2.070       .  S
O349        C361   1.251       .  A
O349       Co354   1.966       .  S
O350        C360   1.257       .  A
O350       Co353   1.980       .  S
O351        C358   1.271       .  A
O351       Co356   2.005       .  S
O352        C359   1.269       .  A
O352       Co355   2.005       .  S
Co353       O357   2.120       .  S
Co354       O357   2.108       .  S
Co355       O357   2.116       .  S
Co356       O357   2.116       .  S
C358       C1264   1.433       .  S
C359       C1247   1.419       .  S
C360       C1577   1.535       .  S
C361       C1327   1.519       .  S
O362        C370   1.251   1_545  A
O362       Co382   1.932       .  S
O363        C371   1.254   1_565  A
O363       Co383   1.938       .  S
O364        C372   1.278       .  A
O364       Co384   2.078       .  S
O365        C373   1.275       .  A
O365       Co385   2.070       .  S
O366        C372   1.265       .  A
O366       Co383   1.988       .  S
O367        C373   1.259       .  A
O367       Co382   1.972       .  S
O368        C371   1.267       .  A
O368       Co385   1.994       .  S
O369        C370   1.269       .  A
O369       Co384   2.015       .  S
C370       C1867   1.439       .  S
C371       C1207   1.442       .  S
C372       C1767   1.534       .  S
C373       C1424   1.516       .  S
O374        C387   1.267       .  A
O374       Co382   2.006       .  S
O375        C388   1.265       .  A
O375       Co383   1.993       .  S
O376        C389   1.259       .  A
O376       Co384   1.974   1_545  S
O377        C390   1.266       .  A
O377       Co385   1.994   1_565  S
O378        C390   1.279       .  A
O378       Co383   2.083       .  S
O379        C389   1.275       .  A
O379       Co382   2.073       .  S
O380        C387   1.257       .  A
O380       Co385   1.945       .  S
O381        C388   1.253       .  A
O381       Co384   1.936       .  S
Co382       O386   2.121       .  S
Co383       O386   2.119   1_565  S
Co384       O386   2.111   1_565  S
Co385       O386   2.123       .  S
C387       C1194   1.445       .  S
C388       C1184   1.431       .  S
C389       C1217   1.518       .  S
C390       C1224   1.540       .  S
C391        C392   1.448       .  A
C391        C396   1.443       .  A
C391       C1287   1.532       .  S
C392        C393   1.447   1_545  A
C392       C1154   1.522       .  S
C393        C394   1.441       .  A
C393       C1227   1.539       .  S
C394        C395   1.445       .  A
C394       C1174   1.525       .  S
C395        C396   1.446   1_565  A
C395       C1144   1.526       .  S
C396       C1164   1.534       .  S
O397        C405   1.252       .  A
O397       Co417   1.945       .  S
O398        C406   1.265       .  A
O398       Co418   1.970       .  S
O399        C407   1.271       .  A
O399       Co419   2.052       .  S
O400        C408   1.274       .  A
O400       Co420   2.073       .  S
O401        C407   1.264       .  A
O401       Co418   1.978       .  S
O402        C408   1.260       .  A
O402       Co417   1.982       .  S
O403        C406   1.257       .  A
O403       Co420   1.949       .  S
O404        C405   1.272       .  A
O404       Co419   2.012       .  S
C405       C1717   1.447       .  S
C406       C1117   1.461       .  S
C407       C1127   1.515       .  S
C408       C1177   1.524       .  S
O409        C422   1.272       .  A
O409       Co417   2.018       .  S
O410        C423   1.272       .  A
O410       Co418   2.012       .  S
O411        C424   1.261       .  A
O411       Co419   1.987       .  S
O412        C425   1.270       .  A
O412       Co420   2.002       .  S
O413        C425   1.270       .  A
O413       Co418   2.053       .  S
O414        C424   1.278       .  A
O414       Co417   2.097       .  S
O415        C422   1.253       .  A
O415       Co420   1.921       .  S
O416        C423   1.254       .  A
O416       Co419   1.930       .  S
Co417       O421   2.122       .  S
Co418       O421   2.128       .  S
Co419       O421   2.114       .  S
Co420       O421   2.109       .  S
C422       C1187   1.433       .  S
C423       C1107   1.433       .  S
C424       C1754   1.543       .  S
C425       C1134   1.536       .  S
O426        C434   1.248       .  A
O426       Co446   1.919       .  S
O427        C435   1.246       .  A
O427       Co447   1.910       .  S
O428        C436   1.274       .  A
O428       Co448   2.070       .  S
O429        C437   1.273       .  A
O429       Co449   2.070       .  S
O430        C436   1.255       .  A
O430       Co447   1.977   1_565  S
O431        C437   1.258       .  A
O431       Co446   1.977   1_545  S
O432        C435   1.271       .  A
O432       Co449   2.013       .  S
O433        C434   1.272       .  A
O433       Co448   2.013       .  S
C434       C1607   1.427       .  S
C435       C1244   1.421       .  S
C436       C1094   1.528       .  S
C437       C1167   1.523       .  S
O438        C451   1.268       .  A
O438       Co446   2.006       .  S
O439        C452   1.269       .  A
O439       Co447   2.010       .  S
O440        C453   1.254       .  A
O440       Co448   1.970       .  S
O441        C454   1.258       .  A
O441       Co449   1.980       .  S
O442        C454   1.274       .  A
O442       Co447   2.070       .  S
O443        C453   1.275       .  A
O443       Co446   2.075       .  S
O444        C451   1.257   1_545  A
O444       Co449   1.943       .  S
O445        C452   1.252   1_565  A
O445       Co448   1.930       .  S
Co446       O450   2.121   1_565  S
Co447       O450   2.118       .  S
Co448       O450   2.110   1_565  S
Co449       O450   2.118       .  S
C451       C1077   1.440       .  S
C452       C1064   1.433       .  S
C453       C1087   1.524       .  S
C454       C1557   1.527       .  S
C455        C456   1.444   1_545  A
C455        C460   1.444       .  A
C455       C1214   1.513       .  S
C456        C457   1.439   1_554  A
C456       C1907   1.538       .  S
C457        C458   1.446       .  A
C457       C1657   1.523       .  S
C458        C459   1.443   1_565  A
C458       C1097   1.526       .  S
C459        C460   1.442   1_556  A
C459       C1044   1.524       .  S
C460       C1057   1.533       .  S
O461        C469   1.261       .  A
O461       Co481   1.947       .  S
O462        C470   1.247       .  A
O462       Co482   1.919       .  S
O463        C471   1.275       .  A
O463       Co483   2.080       .  S
O464        C472   1.272       .  A
O464       Co484   2.057       .  S
O465        C471   1.253       .  A
O465       Co482   1.968       .  S
O466        C472   1.263       .  A
O466       Co481   1.989       .  S
O467        C470   1.274       .  A
O467       Co484   2.020       .  S
O468        C469   1.264       .  A
O468       Co483   1.973       .  S
C469       C1357   1.451       .  S
C470       C1014   1.432       .  S
C471       C1027   1.522       .  S
C472       C1054   1.530       .  S
O473        C486   1.272       .  A
O473       Co481   2.012       .  S
O474        C487   1.271       .  A
O474       Co482   2.005       .  S
O475        C488   1.269       .  A
O475       Co483   2.007       .  S
O476        C489   1.257       .  A
O476       Co484   1.970       .  S
O477        C489   1.272       .  A
O477       Co482   2.071       .  S
O478        C488   1.272       .  A
O478       Co481   2.062       .  S
O479        C486   1.255       .  A
O479       Co484   1.933       .  S
O480        C487   1.254       .  A
O480       Co483   1.936       .  S
Co481       O485   2.119       .  S
Co482       O485   2.118       .  S
Co483       O485   2.122       .  S
Co484       O485   2.104       .  S
C486       C1197   1.436       .  S
C487       C1004   1.438       .  S
C488       C1417   1.541       .  S
C489       C1037   1.518       .  S
O490        C498   1.271       .  A
O490       Co510   2.014       .  S
O491        C499   1.273       .  A
O491       Co511   2.020       .  S
O492        C500   1.256       .  A
O492       Co512   1.975       .  S
O493        C501   1.251       .  A
O493       Co513   1.967       .  S
O494        C500   1.275       .  A
O494       Co511   2.087       .  S
O495        C501   1.272       .  A
O495       Co510   2.073       .  S
O496        C499   1.248       .  A
O496       Co513   1.916       .  S
O497        C498   1.251       .  A
O497       Co512   1.927       .  S
C498       C1457   1.433       .  S
C499       C1257   1.431       .  S
C500       C1294   1.537       .  S
C501       C1404   1.521       .  S
O502        C515   1.244       .  A
O502       Co510   1.908       .  S
O503        C516   1.252       .  A
O503       Co511   1.933       .  S
O504        C517   1.270       .  A
O504       Co512   2.073       .  S
O505        C518   1.273       .  A
O505       Co513   2.073       .  S
O506        C518   1.257       .  A
O506       Co511   1.984       .  S
O507        C517   1.251       .  A
O507       Co510   1.958       .  S
O508        C515   1.272       .  A
O508       Co513   2.017       .  S
O509        C516   1.271       .  A
O509       Co512   2.002       .  S
Co510       O514   2.117       .  S
Co511       O514   2.122       .  S
Co512       O514   2.118       .  S
Co513       O514   2.109       .  S
C515       C1204   1.424       .  S
C516        C997   1.433       .  S
C517       C1997   1.514       .  S
C518       C1157   1.532       .  S
C519        C520   1.437       .  A
C519        C524   1.440       .  A
C519       C2077   1.513       .  S
C520        C521   1.435       .  A
C520       C1827   1.520       .  S
C521        C522   1.438       .  A
C521        C974   1.530       .  S
C522        C523   1.442       .  A
C522        C987   1.510       .  S
C523        C524   1.442       .  A
C523       C1137   1.534       .  S
C524        C964   1.523       .  S
O525        C533   1.276       .  A
O525       Co545   2.020       .  S
O526        C534   1.278       .  A
O526       Co546   2.021       .  S
O527        C535   1.259       .  A
O527       Co547   1.978       .  S
O528        C536   1.258       .  A
O528       Co548   1.989       .  S
O529        C535   1.265       .  A
O529       Co546   2.047       .  S
O530        C536   1.269       .  A
O530       Co545   2.067       .  S
O531        C534   1.255       .  A
O531       Co548   1.933       .  S
O532        C533   1.258       .  A
O532       Co547   1.934       .  S
C533       C1104   1.442       .  S
C534       C1007   1.437       .  S
C535        C937   1.512       .  S
C536        C944   1.531       .  S
O537        C550   1.250       .  A
O537       Co545   1.914       .  S
O538        C551   1.257       .  A
O538       Co546   1.940       .  S
O539        C552   1.263       .  A
O539       Co547   2.033       .  S
O540        C553   1.268       .  A
O540       Co548   2.063       .  S
O541        C553   1.258       .  A
O541       Co546   1.975       .  S
O542        C552   1.255       .  A
O542       Co545   1.976       .  S
O543        C550   1.282       .  A
O543       Co548   2.028       .  S
O544        C551   1.278       .  A
O544       Co547   2.020       .  S
Co545       O549   2.119       .  S
Co546       O549   2.111       .  S
Co547       O549   2.097       .  S
Co548       O549   2.103       .  S
C550        C917   1.438       .  S
C551        C924   1.442       .  S
C552        C984   1.507       .  S
C553        C957   1.526       .  S
C554        C555   1.447       .  A
C554        C559   1.443       .  A
C554       C1487   1.527       .  S
C555        C556   1.441       .  A
C555       C2087   1.513       .  S
C556        C557   1.435       .  A
C556        C897   1.536       .  S
C557        C558   1.440       .  A
C557       C1034   1.516       .  S
C558        C559   1.444       .  A
C558        C954   1.519       .  S
C559        C907   1.533       .  S
C560        C561   1.440       .  A
C560        C565   1.436       .  A
C560       C1974   1.515       .  S
C561        C562   1.443       .  A
C561        C874   1.519       .  S
C562        C563   1.442       .  A
C562       C1084   1.536       .  S
C563        C564   1.451       .  A
C563       C1647   1.520       .  S
C564        C565   1.443       .  A
C564        C884   1.524       .  S
C565       C1547   1.535       .  S
O566        C574   1.260   1_545  A
O566       Co586   1.937       .  S
O567        C575   1.253   1_565  A
O567       Co587   1.931       .  S
O568        C576   1.269       .  A
O568       Co588   2.054       .  S
O569        C577   1.268       .  A
O569       Co589   2.060       .  S
O570        C576   1.266       .  A
O570       Co587   1.998       .  S
O571        C577   1.258       .  A
O571       Co586   1.970       .  S
O572        C575   1.275       .  A
O572       Co589   2.016       .  S
O573        C574   1.274       .  A
O573       Co588   2.016       .  S
C574       C1877   1.439       .  S
C575        C994   1.436       .  S
C576       C1664   1.532       .  S
C577       C1307   1.514       .  S
O578        C591   1.276       .  A
O578       Co586   2.021       .  S
O579        C592   1.267       .  A
O579       Co587   1.976       .  S
O580        C593   1.261       .  A
O580       Co588   1.985   1_545  S
O581        C594   1.251       .  A
O581       Co589   1.967   1_565  S
O582        C594   1.272       .  A
O582       Co587   2.077       .  S
O583        C593   1.267       .  A
O583       Co586   2.038       .  S
O584        C591   1.250       .  A
O584       Co589   1.920       .  S
O585        C592   1.261       .  A
O585       Co588   1.946       .  S
Co586       O590   2.097       .  S
Co587       O590   2.109   1_565  S
Co588       O590   2.114   1_565  S
Co589       O590   2.107       .  S
C591       C2117   1.431       .  S
C592       C1914   1.453       .  S
C593       C2187   1.517       .  S
C594       C2007   1.520       .  S
O595        C603   1.252       .  A
O595       Co615   1.938       .  S
O596        C604   1.258       .  A
O596       Co616   1.950       .  S
O597        C605   1.278       .  A
O597       Co617   2.067       .  S
O598        C606   1.277       .  A
O598       Co618   2.083       .  S
O599        C605   1.266       .  A
O599       Co616   1.994       .  S
O600        C606   1.255       .  A
O600       Co615   1.967       .  S
O601        C604   1.260       .  A
O601       Co618   1.965       .  S
O602        C603   1.268       .  A
O602       Co617   2.010       .  S
C603       C1507   1.442       .  S
C604        C914   1.452       .  S
C605        C864   1.530       .  S
C606        C857   1.522       .  S
O607        C620   1.267       .  A
O607       Co615   2.010       .  S
O608        C621   1.267       .  A
O608       Co616   2.001       .  S
O609        C622   1.262       .  A
O609       Co617   1.981       .  S
O610        C623   1.264       .  A
O610       Co618   1.987       .  S
O611        C623   1.278       .  A
O611       Co616   2.082       .  S
O612        C622   1.276       .  A
O612       Co615   2.071       .  S
O613        C620   1.250       .  A
O613       Co618   1.929       .  S
O614        C621   1.255       .  A
O614       Co617   1.941       .  S
Co615       O619   2.111       .  S
Co616       O619   2.130       .  S
Co617       O619   2.107       .  S
Co618       O619   2.112       .  S
C620       C1237   1.433       .  S
C621       C1444   1.445       .  S
C622       C1587   1.522       .  S
C623        C904   1.536       .  S
C624        C625   1.446       .  A
C624        C629   1.445       .  A
C624       C1734   1.534       .  S
C625        C626   1.441   1_455  A
C625       C1967   1.524       .  S
C626        C627   1.437       .  A
C626       C1527   1.517       .  S
C627        C628   1.440       .  A
C627        C867   1.530       .  S
C628        C629   1.444   1_655  A
C628       C1477   1.526       .  S
C629        C844   1.519       .  S
O630        C638   1.274       .  A
O630       Co650   2.020       .  S
O631        C639   1.277       .  A
O631       Co651   2.028       .  S
O632        C640   1.256       .  A
O632       Co652   1.974       .  S
O633        C641   1.257       .  A
O633       Co653   1.976       .  S
O634        C640   1.269       .  A
O634       Co651   2.053       .  S
O635        C641   1.273       .  A
O635       Co650   2.079       .  S
O636        C639   1.248   1_554  A
O636       Co653   1.918       .  S
O637        C638   1.251   1_556  A
O637       Co652   1.920       .  S
C638       C1797   1.432       .  S
C639       C1617   1.436       .  S
C640        C887   1.518       .  S
C641        C977   1.528       .  S
O642        C655   1.254       .  A
O642       Co650   1.940       .  S
O643        C656   1.257       .  A
O643       Co651   1.942       .  S
O644        C657   1.272       .  A
O644       Co652   2.071       .  S
O645        C658   1.271       .  A
O645       Co653   2.068       .  S
O646        C658   1.256       .  A
O646       Co651   1.972   1_554  S
O647        C657   1.256       .  A
O647       Co650   1.977   1_556  S
O648        C655   1.272       .  A
O648       Co653   2.009       .  S
O649        C656   1.272       .  A
O649       Co652   2.012       .  S
Co650       O654   2.112   1_554  S
Co651       O654   2.107       .  S
Co652       O654   2.120       .  S
Co653       O654   2.121   1_554  S
C655        C927   1.442       .  S
C656       C1517   1.443       .  S
C657        C824   1.527       .  S
C658        C834   1.521       .  S
C659        C660   1.437       .  A
C659        C664   1.437       .  A
C659        C934   1.511       .  S
C660        C661   1.435   1_554  A
C660        C837   1.517       .  S
C661        C662   1.442       .  A
C661       C1637   1.529       .  S
C662        C663   1.443       .  A
C662        C817   1.513       .  S
C663        C664   1.437   1_556  A
C663       C1377   1.522       .  S
C664       C1024   1.527       .  S
O665        C673   1.255   1_554  A
O665       Co685   1.939       .  S
O666        C674   1.254   1_556  A
O666       Co686   1.938       .  S
O667        C675   1.279       .  A
O667       Co687   2.085       .  S
O668        C676   1.279       .  A
O668       Co688   2.086       .  S
O669        C675   1.262       .  A
O669       Co686   1.986       .  S
O670        C676   1.257       .  A
O670       Co685   1.976       .  S
O671        C674   1.267       .  A
O671       Co688   2.001       .  S
O672        C673   1.267       .  A
O672       Co687   2.003       .  S
C673       C2137   1.437       .  S
C674       C1017   1.446       .  S
C675       C1567   1.540       .  S
C676        C894   1.531       .  S
O677        C690   1.271       .  A
O677       Co685   2.021       .  S
O678        C691   1.267       .  A
O678       Co686   2.005       .  S
O679        C692   1.259       .  A
O679       Co687   1.981   1_554  S
O680        C693   1.255       .  A
O680       Co688   1.975   1_556  S
O681        C693   1.277       .  A
O681       Co686   2.083       .  S
O682        C692   1.274       .  A
O682       Co685   2.059       .  S
O683        C690   1.247       .  A
O683       Co688   1.923       .  S
O684        C691   1.253       .  A
O684       Co687   1.935       .  S
Co685       O689   2.116       .  S
Co686       O689   2.121   1_556  S
Co687       O689   2.117   1_556  S
Co688       O689   2.117       .  S
C690       C2047   1.434       .  S
C691       C1067   1.437       .  S
C692       C2174   1.521       .  S
C693       C1047   1.528       .  S
O694        C702   1.278       .  A
O694       Co714   2.022       .  S
O695        C703   1.275       .  A
O695       Co715   2.009       .  S
O696        C704   1.260       .  A
O696       Co716   1.978       .  S
O697        C705   1.259       .  A
O697       Co717   1.979       .  S
O698        C704   1.269       .  A
O698       Co715   2.061       .  S
O699        C705   1.265       .  A
O699       Co714   2.042       .  S
O700        C703   1.257       .  A
O700       Co717   1.934       .  S
O701        C702   1.258       .  A
O701       Co716   1.942       .  S
C702       C1704   1.446       .  S
C703       C1334   1.434       .  S
C704       C1317   1.521       .  S
C705       C1677   1.512       .  S
O706        C719   1.255       .  A
O706       Co714   1.937       .  S
O707        C720   1.253       .  A
O707       Co715   1.930       .  S
O708        C721   1.266       .  A
O708       Co716   2.054       .  S
O709        C722   1.266       .  A
O709       Co717   2.050       .  S
O710        C722   1.257       .  A
O710       Co715   1.975       .  S
O711        C721   1.257       .  A
O711       Co714   1.968       .  S
O712        C719   1.277       .  A
O712       Co717   2.020       .  S
O713        C720   1.277       .  A
O713       Co716   2.017       .  S
Co714       O718   2.098       .  S
Co715       O718   2.104       .  S
Co716       O718   2.107       .  S
Co717       O718   2.105       .  S
C719       C1627   1.440       .  S
C720       C1267   1.434       .  S
C721        C804   1.512       .  S
C722        C814   1.512       .  S
O723        C731   1.273       .  A
O723       Co743   2.010       .  S
O724        C732   1.272       .  A
O724       Co744   2.013       .  S
O725        C733   1.262       .  A
O725       Co745   1.985       .  S
O726        C734   1.263       .  A
O726       Co746   1.984       .  S
O727        C733   1.271       .  A
O727       Co744   2.058       .  S
O728        C734   1.267       .  A
O728       Co743   2.040       .  S
O729        C732   1.260       .  A
O729       Co746   1.945       .  S
O730        C731   1.254       .  A
O730       Co745   1.942       .  S
C731       C2054   1.441       .  S
C732       C1074   1.447       .  S
C733       C1147   1.525       .  S
C734       C1984   1.512       .  S
O735        C748   1.253       .  A
O735       Co743   1.925       .  S
O736        C749   1.258       .  A
O736       Co744   1.941       .  S
O737        C750   1.276       .  A
O737       Co745   2.084       .  S
O738        C751   1.271       .  A
O738       Co746   2.055       .  S
O739        C751   1.260       .  A
O739       Co744   1.981       .  S
O740        C750   1.253       .  A
O740       Co743   1.964       .  S
O741        C748   1.272       .  A
O741       Co746   2.010       .  S
O742        C749   1.273       .  A
O742       Co745   2.005       .  S
Co743       O747   2.107       .  S
Co744       O747   2.123       .  S
Co745       O747   2.112       .  S
Co746       O747   2.115       .  S
C748       C1944   1.429       .  S
C749       C1114   1.447       .  S
C750        C967   1.528       .  S
C751        C877   1.517       .  S
O752        C760   1.251       .  A
O752       Co772   1.930       .  S
O753        C761   1.253       .  A
O753       Co773   1.936       .  S
O754        C762   1.277       .  A
O754       Co774   2.075       .  S
O755        C763   1.274       .  A
O755       Co775   2.070       .  S
O756        C762   1.265       .  A
O756       Co773   1.994       .  S
O757        C763   1.257       .  A
O757       Co772   1.976       .  S
O758        C761   1.270       .  A
O758       Co775   2.016       .  S
O759        C760   1.267       .  A
O759       Co774   1.998       .  S
C760       C1807   1.428       .  S
C761       C1467   1.441       .  S
C762        C794   1.536       .  S
C763        C847   1.524       .  S
O764        C777   1.268       .  A
O764       Co772   2.008       .  S
O765        C778   1.267       .  A
O765       Co773   1.996       .  S
O766        C779   1.265       .  A
O766       Co774   1.992       .  S
O767        C780   1.255       .  A
O767       Co775   1.971       .  S
O768        C780   1.277       .  A
O768       Co773   2.085       .  S
O769        C779   1.278       .  A
O769       Co772   2.079       .  S
O770        C777   1.253       .  A
O770       Co775   1.938       .  S
O771        C778   1.255       .  A
O771       Co774   1.935       .  S
Co772       O776   2.111       .  S
Co773       O776   2.128       .  S
Co774       O776   2.115       .  S
Co775       O776   2.116       .  S
C777       C1697   1.439       .  S
C778       C1347   1.439       .  S
C779       C1774   1.537       .  S
C780       C1397   1.529       .  S
C781        C782   1.440       .  A
C781        C786   1.442       .  A
C781        C947   1.530       .  S
C782        C783   1.435       .  A
C782       C1124   1.518       .  S
C783        C784   1.434       .  A
C783       C1727   1.521       .  S
C784        C785   1.438       .  A
C784        C807   1.510       .  S
C785        C786   1.440       .  A
C785       C1277   1.526       .  S
C786        C854   1.515       .  S
C787        C788   1.444       .  A
C787        C792   1.440   1_455  A
C787        C797   1.534       .  S
C788        C789   1.449   1_554  A
C788       C1364   1.531       .  S
C789        C790   1.449   1_455  A
C789       C2157   1.523       .  S
C790        C791   1.443       .  A
C790       C1537   1.540       .  S
C791        C792   1.443   1_556  A
C791        C827   1.521       .  S
C792       C1817   1.520       .  S
C793        C794   1.412       .  A
C793        C798   1.416       .  A
C793        H800   1.083       .  S
C794        C795   1.424       .  A
C795        C796   1.425       .  A
C795       Br802   1.919       .  S
C796        C797   1.411       .  A
C796        H801   1.082       .  S
C797        C798   1.417       .  A
C798       Br799   1.919   1_455  S
C803        C804   1.410       .  A
C803        C808   1.405       .  A
C803        H810   1.083       .  S
C804        C805   1.421       .  A
C805        C806   1.416       .  A
C805       Br812   1.917       .  S
C806        C807   1.407       .  A
C806        H811   1.083       .  S
C807        C808   1.412       .  A
C808       Br809   1.921       .  S
C813        C814   1.412       .  A
C813        C818   1.415       .  A
C813        H820   1.083       .  S
C814        C815   1.420       .  A
C815        C816   1.407       .  A
C815       Br822   1.921       .  S
C816        C817   1.405       .  A
C816        H821   1.084       .  S
C817        C818   1.413       .  A
C818       Br819   1.914       .  S
C823        C824   1.416       .  A
C823        C828   1.420       .  A
C823        H830   1.079       .  S
C824        C825   1.422       .  A
C825        C826   1.409       .  A
C825       Br832   1.921   1_556  S
C826        C827   1.403       .  A
C826        H831   1.083   1_556  S
C827        C828   1.412       .  A
C828       Br829   1.915       .  S
C833        C834   1.414       .  A
C833        C838   1.411   1_554  A
C833        H840   1.083   1_554  S
C834        C835   1.419       .  A
C835        C836   1.412       .  A
C835       Br842   1.911       .  S
C836        C837   1.405       .  A
C836        H841   1.078       .  S
C837        C838   1.411   1_554  A
C838       Br839   1.918       .  S
C843        C844   1.403       .  A
C843        C848   1.409       .  A
C843        H850   1.083       .  S
C844        C845   1.414       .  A
C845        C846   1.419       .  A
C845       Br852   1.914       .  S
C846        C847   1.415       .  A
C846        H851   1.082       .  S
C847        C848   1.423       .  A
C848       Br849   1.922       .  S
C853        C854   1.402       .  A
C853        C858   1.407       .  A
C853        H860   1.083       .  S
C854        C855   1.412       .  A
C855        C856   1.418       .  A
C855       Br862   1.915       .  S
C856        C857   1.414       .  A
C856        H861   1.082       .  S
C857        C858   1.425       .  A
C858       Br859   1.922       .  S
C863        C864   1.413       .  A
C863        C868   1.418       .  A
C863        H870   1.083       .  S
C864        C865   1.421       .  A
C865        C866   1.417       .  A
C865       Br872   1.915       .  S
C866        C867   1.408       .  A
C866        H871   1.079       .  S
C867        C868   1.417       .  A
C868       Br869   1.918       .  S
C873        C874   1.410       .  A
C873        C878   1.417       .  A
C873        H880   1.082       .  S
C874        C875   1.414       .  A
C875        C876   1.410       .  A
C875       Br882   1.920       .  S
C876        C877   1.409       .  A
C876        H881   1.083       .  S
C877        C878   1.418       .  A
C878       Br879   1.921       .  S
C883        C884   1.409       .  A
C883        C888   1.412       .  A
C883        H890   1.084       .  S
C884        C885   1.420       .  A
C885        C886   1.413       .  A
C885       Br892   1.905       .  S
C886        C887   1.407       .  A
C886        H891   1.083       .  S
C887        C888   1.419       .  A
C888       Br889   1.919       .  S
C893        C894   1.409       .  A
C893        C898   1.416       .  A
C893        H900   1.074       .  S
C894        C895   1.423       .  A
C895        C896   1.418       .  A
C895       Br902   1.920       .  S
C896        C897   1.412       .  A
C896        H901   1.083       .  S
C897        C898   1.418       .  A
C898       Br899   1.912       .  S
C903        C904   1.419       .  A
C903        C908   1.424       .  A
C903        H910   1.083       .  S
C904        C905   1.426       .  A
C905        C906   1.417       .  A
C905       Br912   1.921       .  S
C906        C907   1.407       .  A
C906        H911   1.083       .  S
C907        C908   1.416       .  A
C908       Br909   1.914       .  S
C913        C914   1.405       .  A
C913        C918   1.395       .  A
C913        H920   1.082       .  S
C914        C915   1.417       .  A
C915        C916   1.368       .  A
C915       Br922   1.918       .  S
C916        C917   1.379       .  A
C916        H921   1.045       .  S
C917        C918   1.402       .  A
C918       Br919   1.916       .  S
C923        C924   1.401       .  A
C923        C928   1.388       .  A
C923        H930   1.084       .  S
C924        C925   1.400       .  A
C925        C926   1.387       .  A
C925       Br932   1.913       .  S
C926        C927   1.401       .  A
C926        H931   1.084       .  S
C927        C928   1.400       .  A
C928       Br929   1.914       .  S
C933        C934   1.407       .  A
C933        C938   1.415       .  A
C933        H940   1.083       .  S
C934        C935   1.414       .  A
C935        C936   1.406       .  A
C935       Br942   1.923       .  S
C936        C937   1.409       .  A
C936        H941   1.083       .  S
C937        C938   1.420       .  A
C938       Br939   1.917       .  S
C943        C944   1.414       .  A
C943        C948   1.417       .  A
C943        H950   1.083       .  S
C944        C945   1.424       .  A
C945        C946   1.415       .  A
C945       Br952   1.911       .  S
C946        C947   1.407       .  A
C946        H951   1.082       .  S
C947        C948   1.417       .  A
C948       Br949   1.918       .  S
C953        C954   1.405       .  A
C953        C958   1.411       .  A
C953        H960   1.084       .  S
C954        C955   1.414       .  A
C955        C956   1.418       .  A
C955       Br962   1.912       .  S
C956        C957   1.414       .  A
C956        H961   1.083       .  S
C957        C958   1.423       .  A
C958       Br959   1.920       .  S
C963        C964   1.405       .  A
C963        C968   1.412       .  A
C963        H970   1.084       .  S
C964        C965   1.416       .  A
C965        C966   1.418       .  A
C965       Br972   1.909       .  S
C966        C967   1.413       .  A
C966        H971   1.083       .  S
C967        C968   1.425       .  A
C968       Br969   1.921       .  S
C973        C974   1.412       .  A
C973        C978   1.424       .  A
C973        H980   1.080       .  S
C974        C975   1.414       .  A
C975        C976   1.412       .  A
C975       Br982   1.914       .  S
C976        C977   1.412       .  A
C976        H981   1.083       .  S
C977        C978   1.421       .  A
C978       Br979   1.916       .  S
C983        C984   1.407       .  A
C983        C988   1.407       .  A
C983        H990   1.083       .  S
C984        C985   1.416       .  A
C985        C986   1.413       .  A
C985       Br992   1.918       .  S
C986        C987   1.407       .  A
C986        H991   1.082       .  S
C987        C988   1.415       .  A
C988       Br989   1.920       .  S
C993        C994   1.401       .  A
C993        C998   1.385       .  A
C993       H1000   1.084   1_545  S
C994        C995   1.399       .  A
C995        C996   1.383       .  A
C995      Br1002   1.911       .  S
C996        C997   1.399       .  A
C996       H1001   1.084       .  S
C997        C998   1.399       .  A
C998       Br999   1.917       .  S
C1003      C1004   1.402       .  A
C1003      C1008   1.386       .  A
C1003      H1010   1.083       .  S
C1004      C1005   1.397       .  A
C1005      C1006   1.386       .  A
C1005     Br1012   1.915       .  S
C1006      C1007   1.401       .  A
C1006      H1011   1.084       .  S
C1007      C1008   1.398       .  A
C1008     Br1009   1.915       .  S
C1013      C1014   1.381       .  A
C1013      C1018   1.374       .  A
C1013      H1020   1.082       .  S
C1014      C1015   1.403       .  A
C1015      C1016   1.390       .  A
C1015     Br1022   1.909       .  S
C1016      C1017   1.398       .  A
C1016      H1021   1.084       .  S
C1017      C1018   1.410       .  A
C1018     Br1019   1.895       .  S
C1023      C1024   1.407       .  A
C1023      C1028   1.411       .  A
C1023      H1030   1.083   1_554  S
C1024      C1025   1.419       .  A
C1025      C1026   1.416       .  A
C1025     Br1032   1.908       .  S
C1026      C1027   1.410       .  A
C1026      H1031   1.082       .  S
C1027      C1028   1.423       .  A
C1028     Br1029   1.921       .  S
C1033      C1034   1.408       .  A
C1033      C1038   1.417       .  A
C1033      H1040   1.083       .  S
C1034      C1035   1.411       .  A
C1035      C1036   1.405       .  A
C1035     Br1042   1.917       .  S
C1036      C1037   1.411       .  A
C1036      H1041   1.083       .  S
C1037      C1038   1.420       .  A
C1038     Br1039   1.913       .  S
C1043      C1044   1.403   1_554  A
C1043      C1048   1.410       .  A
C1043      H1050   1.083       .  S
C1044      C1045   1.414       .  A
C1045      C1046   1.422       .  A
C1045     Br1052   1.913       .  S
C1046      C1047   1.416       .  A
C1046      H1051   1.083       .  S
C1047      C1048   1.424   1_556  A
C1048     Br1049   1.923       .  S
C1053      C1054   1.411       .  A
C1053      C1058   1.416       .  A
C1053      H1060   1.082       .  S
C1054      C1055   1.422       .  A
C1055      C1056   1.419       .  A
C1055     Br1062   1.918       .  S
C1056      C1057   1.411       .  A
C1056      H1061   1.083       .  S
C1057      C1058   1.419       .  A
C1058     Br1059   1.909       .  S
C1063      C1064   1.387       .  A
C1063      C1068   1.380       .  A
C1063      H1070   1.084       .  S
C1064      C1065   1.404       .  A
C1065      C1066   1.385       .  A
C1065     Br1072   1.902   1_545  S
C1066      C1067   1.392       .  A
C1066      H1071   1.084       .  S
C1067      C1068   1.406       .  A
C1068     Br1069   1.899       .  S
C1073      C1074   1.395       .  A
C1073      C1078   1.389       .  A
C1073      H1080   1.084       .  S
C1074      C1075   1.408       .  A
C1075      C1076   1.383       .  A
C1075     Br1082   1.901       .  S
C1076      C1077   1.389       .  A
C1076      H1081   1.084       .  S
C1077      C1078   1.407       .  A
C1078     Br1079   1.911   1_565  S
C1083      C1084   1.410       .  A
C1083      C1088   1.416       .  A
C1083      H1090   1.084       .  S
C1084      C1085   1.422       .  A
C1085      C1086   1.415       .  A
C1085     Br1092   1.901       .  S
C1086      C1087   1.406       .  A
C1086      H1091   1.083       .  S
C1087      C1088   1.425       .  A
C1088     Br1089   1.922       .  S
C1093      C1094   1.407       .  A
C1093      C1098   1.411       .  A
C1093      H1100   1.077       .  S
C1094      C1095   1.424       .  A
C1095      C1096   1.418       .  A
C1095     Br1102   1.920   1_565  S
C1096      C1097   1.411       .  A
C1096      H1101   1.084   1_565  S
C1097      C1098   1.414       .  A
C1098     Br1099   1.908       .  S
C1103      C1104   1.397       .  A
C1103      C1108   1.390       .  A
C1103      H1110   1.084       .  S
C1104      C1105   1.409       .  A
C1105      C1106   1.378       .  A
C1105     Br1112   1.905       .  S
C1106      C1107   1.385       .  A
C1106      H1111   1.084       .  S
C1107      C1108   1.406       .  A
C1108     Br1109   1.914       .  S
C1113      C1114   1.383       .  A
C1113      C1118   1.364       .  A
C1113      H1120   1.072       .  S
C1114      C1115   1.407       .  A
C1115      C1116   1.402       .  A
C1115     Br1122   1.917       .  S
C1116      C1117   1.406       .  A
C1116      H1121   1.083       .  S
C1117      C1118   1.420       .  A
C1118     Br1119   1.935       .  S
C1123      C1124   1.409       .  A
C1123      C1128   1.414       .  A
C1123      H1130   1.082       .  S
C1124      C1125   1.415       .  A
C1125      C1126   1.410       .  A
C1125     Br1132   1.919       .  S
C1126      C1127   1.409       .  A
C1126      H1131   1.083       .  S
C1127      C1128   1.418       .  A
C1128     Br1129   1.915       .  S
C1133      C1134   1.413       .  A
C1133      C1138   1.420       .  A
C1133      H1140   1.083       .  S
C1134      C1135   1.428       .  A
C1135      C1136   1.420       .  A
C1135     Br1142   1.920       .  S
C1136      C1137   1.407       .  A
C1136      H1141   1.080       .  S
C1137      C1138   1.418       .  A
C1138     Br1139   1.913       .  S
C1143      C1144   1.407       .  A
C1143      C1148   1.417       .  A
C1143      H1150   1.082       .  S
C1144      C1145   1.417       .  A
C1145      C1146   1.414       .  A
C1145     Br1152   1.918   1_565  S
C1146      C1147   1.412       .  A
C1146      H1151   1.083       .  S
C1147      C1148   1.425       .  A
C1148     Br1149   1.918       .  S
C1153      C1154   1.407       .  A
C1153      C1158   1.415       .  A
C1153      H1160   1.084   1_545  S
C1154      C1155   1.412       .  A
C1155      C1156   1.417       .  A
C1155     Br1162   1.913       .  S
C1156      C1157   1.413       .  A
C1156      H1161   1.076       .  S
C1157      C1158   1.425       .  A
C1158     Br1159   1.920       .  S
C1163      C1164   1.415       .  A
C1163      C1168   1.421       .  A
C1163      H1170   1.080       .  S
C1164      C1165   1.416   1_545  A
C1165      C1166   1.413       .  A
C1165     Br1172   1.915       .  S
C1166      C1167   1.410   1_565  A
C1166      H1171   1.083       .  S
C1167      C1168   1.417       .  A
C1168     Br1169   1.919       .  S
C1173      C1174   1.412       .  A
C1173      C1178   1.425       .  A
C1173      H1180   1.083       .  S
C1174      C1175   1.413       .  A
C1175      C1176   1.408       .  A
C1175     Br1182   1.917       .  S
C1176      C1177   1.409       .  A
C1176      H1181   1.083       .  S
C1177      C1178   1.423       .  A
C1178     Br1179   1.918       .  S
C1183      C1184   1.389       .  A
C1183      C1188   1.382       .  A
C1183      H1190   1.085       .  S
C1184      C1185   1.405       .  A
C1185      C1186   1.380       .  A
C1185     Br1192   1.904       .  S
C1186      C1187   1.389       .  A
C1186      H1191   1.085       .  S
C1187      C1188   1.408       .  A
C1188     Br1189   1.903       .  S
C1193      C1194   1.396       .  A
C1193      C1198   1.390       .  A
C1193      H1200   1.084       .  S
C1194      C1195   1.409       .  A
C1195      C1196   1.380       .  A
C1195     Br1202   1.905       .  S
C1196      C1197   1.387       .  A
C1196      H1201   1.083       .  S
C1197      C1198   1.405       .  A
C1198     Br1199   1.910       .  S
C1203      C1204   1.378       .  A
C1203      C1208   1.370       .  A
C1203      H1210   1.080       .  S
C1204      C1205   1.402       .  A
C1205      C1206   1.391       .  A
C1205     Br1212   1.916       .  S
C1206      C1207   1.401       .  A
C1206      H1211   1.084       .  S
C1207      C1208   1.409       .  A
C1208     Br1209   1.898       .  S
C1213      C1214   1.408       .  A
C1213      C1218   1.418       .  A
C1213      H1220   1.083       .  S
C1214      C1215   1.413   1_545  A
C1215      C1216   1.406   1_565  A
C1215     Br1222   1.920       .  S
C1216      C1217   1.410       .  A
C1216      H1221   1.083   1_545  S
C1217      C1218   1.420       .  A
C1218     Br1219   1.914       .  S
C1223      C1224   1.415       .  A
C1223      C1228   1.419   1_565  A
C1223      H1230   1.083   1_565  S
C1224      C1225   1.425       .  A
C1225      C1226   1.425       .  A
C1225     Br1232   1.920       .  S
C1226      C1227   1.412       .  A
C1226      H1231   1.080       .  S
C1227      C1228   1.416   1_565  A
C1228     Br1229   1.917       .  S
C1233      C1234   1.388       .  A
C1233      C1238   1.381       .  A
C1233      H1240   1.084       .  S
C1234      C1235   1.406       .  A
C1235      C1236   1.382       .  A
C1235     Br1242   1.905       .  S
C1236      C1237   1.390       .  A
C1236      H1241   1.084       .  S
C1237      C1238   1.406       .  A
C1238     Br1239   1.904       .  S
C1243      C1244   1.390       .  A
C1243      C1248   1.377       .  A
C1243      H1250   1.084       .  S
C1244      C1245   1.402       .  A
C1245      C1246   1.379       .  A
C1245     Br1252   1.906       .  S
C1246      C1247   1.390       .  A
C1246      H1251   1.084       .  S
C1247      C1248   1.401       .  A
C1248     Br1249   1.909       .  S
C1253      C1254   1.394       .  A
C1253      C1258   1.388       .  A
C1253      H1260   1.084       .  S
C1254      C1255   1.408       .  A
C1255      C1256   1.376       .  A
C1255     Br1262   1.896       .  S
C1256      C1257   1.383       .  A
C1256      H1261   1.084       .  S
C1257      C1258   1.405       .  A
C1258     Br1259   1.905       .  S
C1263      C1264   1.400       .  A
C1263      C1268   1.384       .  A
C1263      H1270   1.084       .  S
C1264      C1265   1.398       .  A
C1265      C1266   1.383       .  A
C1265     Br1272   1.915       .  S
C1266      C1267   1.399       .  A
C1266      H1271   1.081       .  S
C1267      C1268   1.399       .  A
C1268     Br1269   1.914       .  S
C1273      C1274   1.415       .  A
C1273      C1278   1.421       .  A
C1273      H1280   1.083       .  S
C1274      C1275   1.425       .  A
C1275      C1276   1.411       .  A
C1275     Br1282   1.921       .  S
C1276      C1277   1.404       .  A
C1276      H1281   1.083       .  S
C1277      C1278   1.417       .  A
C1278     Br1279   1.912       .  S
C1283      C1284   1.416       .  A
C1283      C1288   1.424       .  A
C1283      H1290   1.082       .  S
C1284      C1285   1.426       .  A
C1285      C1286   1.414       .  A
C1285     Br1292   1.922       .  S
C1286      C1287   1.406       .  A
C1286      H1291   1.084       .  S
C1287      C1288   1.416       .  A
C1288     Br1289   1.913       .  S
C1293      C1294   1.416       .  A
C1293      C1298   1.423       .  A
C1293      H1300   1.083       .  S
C1294      C1295   1.428       .  A
C1295      C1296   1.416       .  A
C1295     Br1302   1.921       .  S
C1296      C1297   1.406       .  A
C1296      H1301   1.083       .  S
C1297      C1298   1.418       .  A
C1298     Br1299   1.912       .  S
C1303      C1304   1.408       .  A
C1303      C1308   1.416       .  A
C1303      H1310   1.083       .  S
C1304      C1305   1.411       .  A
C1305      C1306   1.404       .  A
C1305     Br1312   1.916       .  S
C1306      C1307   1.409       .  A
C1306      H1311   1.083       .  S
C1307      C1308   1.420       .  A
C1308     Br1309   1.913       .  S
C1313      C1314   1.410       .  A
C1313      C1318   1.418       .  A
C1313      H1320   1.083       .  S
C1314      C1315   1.411       .  A
C1315      C1316   1.406       .  A
C1315     Br1322   1.918       .  S
C1316      C1317   1.411       .  A
C1316      H1321   1.082       .  S
C1317      C1318   1.423       .  A
C1318     Br1319   1.918       .  S
C1323      C1324   1.402       .  A
C1323      C1328   1.407       .  A
C1323      H1330   1.082       .  S
C1324      C1325   1.414       .  A
C1325      C1326   1.415       .  A
C1325     Br1332   1.911       .  S
C1326      C1327   1.411       .  A
C1326      H1331   1.083       .  S
C1327      C1328   1.423       .  A
C1328     Br1329   1.922       .  S
C1333      C1334   1.402       .  A
C1333      C1338   1.386       .  A
C1333      H1340   1.084       .  S
C1334      C1335   1.397       .  A
C1335      C1336   1.381       .  A
C1335     Br1342   1.910       .  S
C1336      C1337   1.398       .  A
C1336      H1341   1.084       .  S
C1337      C1338   1.398       .  A
C1338     Br1339   1.912       .  S
C1343      C1344   1.382       .  A
C1343      C1348   1.373       .  A
C1343      H1350   1.080       .  S
C1344      C1345   1.402       .  A
C1345      C1346   1.388       .  A
C1345     Br1352   1.912       .  S
C1346      C1347   1.397       .  A
C1346      H1351   1.084       .  S
C1347      C1348   1.408       .  A
C1348     Br1349   1.899       .  S
C1353      C1354   1.384       .  A
C1353      C1358   1.375       .  A
C1353      H1360   1.055       .  S
C1354      C1355   1.403       .  A
C1355      C1356   1.392       .  A
C1355     Br1362   1.910   1_554  S
C1356      C1357   1.401       .  A
C1356      H1361   1.082       .  S
C1357      C1358   1.417       .  A
C1358     Br1359   1.923       .  S
C1363      C1364   1.412   1_556  A
C1363      C1368   1.419       .  A
C1363      H1370   1.083       .  S
C1364      C1365   1.418       .  A
C1365      C1366   1.414       .  A
C1365     Br1372   1.904       .  S
C1366      C1367   1.410       .  A
C1366      H1371   1.083       .  S
C1367      C1368   1.421   1_554  A
C1368     Br1369   1.919       .  S
C1373      C1374   1.414   1_554  A
C1373      C1378   1.409       .  A
C1373      H1380   1.083       .  S
C1374      C1375   1.421       .  A
C1375      C1376   1.420       .  A
C1375     Br1382   1.915       .  S
C1376      C1377   1.410       .  A
C1376      H1381   1.082       .  S
C1377      C1378   1.411   1_556  A
C1378     Br1379   1.918       .  S
C1383      C1384   1.411       .  A
C1383      C1388   1.422       .  A
C1383      H1390   1.083       .  S
C1384      C1385   1.415       .  A
C1385      C1386   1.404       .  A
C1385     Br1392   1.914       .  S
C1386      C1387   1.407       .  A
C1386      H1391   1.083       .  S
C1387      C1388   1.422       .  A
C1388     Br1389   1.913       .  S
C1393      C1394   1.403       .  A
C1393      C1398   1.410       .  A
C1393      H1400   1.083       .  S
C1394      C1395   1.412       .  A
C1395      C1396   1.421       .  A
C1395     Br1402   1.915       .  S
C1396      C1397   1.416       .  A
C1396      H1401   1.081       .  S
C1397      C1398   1.425       .  A
C1398     Br1399   1.922       .  S
C1403      C1404   1.412       .  A
C1403      C1408   1.416       .  A
C1403      H1410   1.082       .  S
C1404      C1405   1.425       .  A
C1405      C1406   1.410       .  A
C1405     Br1412   1.923       .  S
C1406      C1407   1.404       .  A
C1406      H1411   1.084       .  S
C1407      C1408   1.414       .  A
C1408     Br1409   1.912       .  S
C1413      C1414   1.408       .  A
C1413      C1418   1.422       .  A
C1413      H1420   1.081       .  S
C1414      C1415   1.417       .  A
C1415      C1416   1.421       .  A
C1415     Br1422   1.917       .  S
C1416      C1417   1.415       .  A
C1416      H1421   1.083       .  S
C1417      C1418   1.430       .  A
C1418     Br1419   1.919       .  S
C1423      C1424   1.410       .  A
C1423      C1428   1.407       .  A
C1423      H1430   1.083       .  S
C1424      C1425   1.420       .  A
C1425      C1426   1.419       .  A
C1425     Br1432   1.919       .  S
C1426      C1427   1.410       .  A
C1426      H1431   1.083       .  S
C1427      C1428   1.412       .  A
C1428     Br1429   1.921       .  S
C1433      C1434   1.407       .  A
C1433      C1438   1.413       .  A
C1433      H1440   1.084       .  S
C1434      C1435   1.409       .  A
C1435      C1436   1.410       .  A
C1435     Br1442   1.914       .  S
C1436      C1437   1.413       .  A
C1436      H1441   1.079       .  S
C1437      C1438   1.421       .  A
C1438     Br1439   1.919       .  S
C1443      C1444   1.398       .  A
C1443      C1448   1.390       .  A
C1443      H1450   1.084       .  S
C1444      C1445   1.408       .  A
C1445      C1446   1.377       .  A
C1445     Br1452   1.901       .  S
C1446      C1447   1.385       .  A
C1446      H1451   1.081       .  S
C1447      C1448   1.403       .  A
C1448     Br1449   1.912       .  S
C1453      C1454   1.392       .  A
C1453      C1458   1.386       .  A
C1453      H1460   1.081       .  S
C1454      C1455   1.406       .  A
C1455      C1456   1.382       .  A
C1455     Br1462   1.897       .  S
C1456      C1457   1.388       .  A
C1456      H1461   1.084       .  S
C1457      C1458   1.405       .  A
C1458     Br1459   1.909       .  S
C1463      C1464   1.387       .  A
C1463      C1468   1.381       .  A
C1463      H1470   1.084       .  S
C1464      C1465   1.404       .  A
C1465      C1466   1.387       .  A
C1465     Br1472   1.904   1_455  S
C1466      C1467   1.393       .  A
C1466      H1471   1.084       .  S
C1467      C1468   1.406       .  A
C1468     Br1469   1.898       .  S
C1473      C1474   1.411       .  A
C1473      C1478   1.416       .  A
C1473      H1480   1.079       .  S
C1474      C1475   1.424       .  A
C1475      C1476   1.415       .  A
C1475     Br1482   1.921   1_655  S
C1476      C1477   1.408       .  A
C1476      H1481   1.083   1_655  S
C1477      C1478   1.414       .  A
C1478     Br1479   1.909       .  S
C1483      C1484   1.412       .  A
C1483      C1488   1.418       .  A
C1483      H1490   1.080       .  S
C1484      C1485   1.426       .  A
C1485      C1486   1.414       .  A
C1485     Br1492   1.922       .  S
C1486      C1487   1.406       .  A
C1486      H1491   1.083       .  S
C1487      C1488   1.416       .  A
C1488     Br1489   1.914       .  S
C1493      C1494   1.412       .  A
C1493      C1498   1.417       .  A
C1493      H1500   1.082       .  S
C1494      C1495   1.424       .  A
C1495      C1496   1.411       .  A
C1495     Br1502   1.922       .  S
C1496      C1497   1.405       .  A
C1496      H1501   1.083       .  S
C1497      C1498   1.412       .  A
C1498     Br1499   1.914       .  S
C1503      C1504   1.387       .  A
C1503      C1508   1.381       .  A
C1503      H1510   1.085       .  S
C1504      C1505   1.405       .  A
C1505      C1506   1.387       .  A
C1505     Br1512   1.907       .  S
C1506      C1507   1.393       .  A
C1506      H1511   1.084       .  S
C1507      C1508   1.408       .  A
C1508     Br1509   1.901       .  S
C1513      C1514   1.386       .  A
C1513      C1518   1.379       .  A
C1513      H1520   1.084       .  S
C1514      C1515   1.404       .  A
C1515      C1516   1.390       .  A
C1515     Br1522   1.909       .  S
C1516      C1517   1.396       .  A
C1516      H1521   1.084       .  S
C1517      C1518   1.408       .  A
C1518     Br1519   1.901       .  S
C1523      C1524   1.411       .  A
C1523      C1528   1.406       .  A
C1523      H1530   1.083       .  S
C1524      C1525   1.419       .  A
C1525      C1526   1.419       .  A
C1525     Br1532   1.917       .  S
C1526      C1527   1.410       .  A
C1526      H1531   1.082       .  S
C1527      C1528   1.412       .  A
C1528     Br1529   1.922   1_655  S
C1533      C1534   1.409       .  A
C1533      C1538   1.419       .  A
C1533      H1540   1.079       .  S
C1534      C1535   1.426       .  A
C1535      C1536   1.421       .  A
C1535     Br1542   1.920       .  S
C1536      C1537   1.411       .  A
C1536      H1541   1.083   1_655  S
C1537      C1538   1.421       .  A
C1538     Br1539   1.908       .  S
C1543      C1544   1.415       .  A
C1543      C1548   1.415       .  A
C1543      H1550   1.083       .  S
C1544      C1545   1.426       .  A
C1545      C1546   1.427       .  A
C1545     Br1552   1.915       .  S
C1546      C1547   1.413       .  A
C1546      H1551   1.083       .  S
C1547      C1548   1.414       .  A
C1548     Br1549   1.917       .  S
C1553      C1554   1.405       .  A
C1553      C1558   1.412       .  A
C1553      H1560   1.083       .  S
C1554      C1555   1.411       .  A
C1555      C1556   1.417       .  A
C1555     Br1562   1.914       .  S
C1556      C1557   1.415       .  A
C1556      H1561   1.079       .  S
C1557      C1558   1.424       .  A
C1558     Br1559   1.921       .  S
C1563      C1564   1.409       .  A
C1563      C1568   1.418       .  A
C1563      H1570   1.083       .  S
C1564      C1565   1.415       .  A
C1565      C1566   1.424       .  A
C1565     Br1572   1.914       .  S
C1566      C1567   1.417       .  A
C1566      H1571   1.082       .  S
C1567      C1568   1.425       .  A
C1568     Br1569   1.921       .  S
C1573      C1574   1.408       .  A
C1573      C1578   1.416       .  A
C1573      H1580   1.083       .  S
C1574      C1575   1.419       .  A
C1575      C1576   1.425       .  A
C1575     Br1582   1.913       .  S
C1576      C1577   1.415       .  A
C1576      H1581   1.083       .  S
C1577      C1578   1.424       .  A
C1578     Br1579   1.921       .  S
C1583      C1584   1.412       .  A
C1583      C1588   1.420       .  A
C1583      H1590   1.081       .  S
C1584      C1585   1.414       .  A
C1585      C1586   1.409       .  A
C1585     Br1592   1.920       .  S
C1586      C1587   1.411       .  A
C1586      H1591   1.083       .  S
C1587      C1588   1.421       .  A
C1588     Br1589   1.921       .  S
C1593      C1594   1.407       .  A
C1593      C1598   1.417       .  A
C1593      H1600   1.080       .  S
C1594      C1595   1.413       .  A
C1595      C1596   1.414       .  A
C1595     Br1602   1.919       .  S
C1596      C1597   1.413       .  A
C1596      H1601   1.083       .  S
C1597      C1598   1.420       .  A
C1598     Br1599   1.909       .  S
C1603      C1604   1.399       .  A
C1603      C1608   1.390       .  A
C1603      H1610   1.084       .  S
C1604      C1605   1.408       .  A
C1605      C1606   1.374       .  A
C1605     Br1612   1.902       .  S
C1606      C1607   1.383       .  A
C1606      H1611   1.080       .  S
C1607      C1608   1.402       .  A
C1608     Br1609   1.916       .  S
C1613      C1614   1.402       .  A
C1613      C1618   1.394       .  A
C1613      H1620   1.083       .  S
C1614      C1615   1.411       .  A
C1615      C1616   1.373       .  A
C1615     Br1622   1.894       .  S
C1616      C1617   1.378       .  A
C1616      H1621   1.078       .  S
C1617      C1618   1.401       .  A
C1618     Br1619   1.909   1_556  S
C1623      C1624   1.401       .  A
C1623      C1628   1.387       .  A
C1623      H1630   1.084       .  S
C1624      C1625   1.399       .  A
C1625      C1626   1.385       .  A
C1625     Br1632   1.913       .  S
C1626      C1627   1.399       .  A
C1626      H1631   1.081       .  S
C1627      C1628   1.400       .  A
C1628     Br1629   1.914       .  S
C1633      C1634   1.415       .  A
C1633      C1638   1.422       .  A
C1633      H1640   1.083       .  S
C1634      C1635   1.424       .  A
C1635      C1636   1.410       .  A
C1635     Br1642   1.922       .  S
C1636      C1637   1.406       .  A
C1636      H1641   1.083   1_556  S
C1637      C1638   1.418       .  A
C1638     Br1639   1.913       .  S
C1643      C1644   1.410       .  A
C1643      C1648   1.408       .  A
C1643      H1650   1.083       .  S
C1644      C1645   1.422       .  A
C1645      C1646   1.422       .  A
C1645     Br1652   1.919       .  S
C1646      C1647   1.411       .  A
C1646      H1651   1.083       .  S
C1647      C1648   1.413       .  A
C1648     Br1649   1.921       .  S
C1653      C1654   1.410       .  A
C1653      C1658   1.413       .  A
C1653      H1660   1.083       .  S
C1654      C1655   1.425       .  A
C1655      C1656   1.420       .  A
C1655     Br1662   1.914       .  S
C1656      C1657   1.408       .  A
C1656      H1661   1.083       .  S
C1657      C1658   1.416       .  A
C1658     Br1659   1.917   1_556  S
C1663      C1664   1.412       .  A
C1663      C1668   1.416       .  A
C1663      H1670   1.083       .  S
C1664      C1665   1.429       .  A
C1665      C1666   1.419       .  A
C1665     Br1672   1.921       .  S
C1666      C1667   1.407       .  A
C1666      H1671   1.082       .  S
C1667      C1668   1.415       .  A
C1668     Br1669   1.918       .  S
C1673      C1674   1.403       .  A
C1673      C1678   1.411       .  A
C1673      H1680   1.082       .  S
C1674      C1675   1.410       .  A
C1675      C1676   1.405       .  A
C1675     Br1682   1.922       .  S
C1676      C1677   1.411       .  A
C1676      H1681   1.083       .  S
C1677      C1678   1.422       .  A
C1678     Br1679   1.918       .  S
C1683      C1684   1.405       .  A
C1683      C1688   1.409       .  A
C1683      H1690   1.084       .  S
C1684      C1685   1.413       .  A
C1685      C1686   1.414       .  A
C1685     Br1692   1.911       .  S
C1686      C1687   1.411       .  A
C1686      H1691   1.081       .  S
C1687      C1688   1.423       .  A
C1688     Br1689   1.921       .  S
C1693      C1694   1.392       .  A
C1693      C1698   1.385       .  A
C1693      H1700   1.084       .  S
C1694      C1695   1.408       .  A
C1695      C1696   1.384       .  A
C1695     Br1702   1.906       .  S
C1696      C1697   1.391       .  A
C1696      H1701   1.084       .  S
C1697      C1698   1.406       .  A
C1698     Br1699   1.908       .  S
C1703      C1704   1.402       .  A
C1703      C1708   1.389       .  A
C1703      H1710   1.083       .  S
C1704      C1705   1.398       .  A
C1705      C1706   1.388       .  A
C1705     Br1712   1.909       .  S
C1706      C1707   1.401       .  A
C1706      H1711   1.084       .  S
C1707      C1708   1.400       .  A
C1708     Br1709   1.914       .  S
C1713      C1714   1.401       .  A
C1713      C1718   1.387       .  A
C1713      H1720   1.081       .  S
C1714      C1715   1.398       .  A
C1715      C1716   1.389       .  A
C1715     Br1722   1.916       .  S
C1716      C1717   1.400       .  A
C1716      H1721   1.077       .  S
C1717      C1718   1.399       .  A
C1718     Br1719   1.913       .  S
C1723      C1724   1.412       .  A
C1723      C1728   1.410       .  A
C1723      H1730   1.083       .  S
C1724      C1725   1.424       .  A
C1725      C1726   1.418       .  A
C1725     Br1732   1.919       .  S
C1726      C1727   1.408       .  A
C1726      H1731   1.081       .  S
C1727      C1728   1.412       .  A
C1728     Br1729   1.917       .  S
C1733      C1734   1.409       .  A
C1733      C1738   1.419       .  A
C1733      H1740   1.083       .  S
C1734      C1735   1.416       .  A
C1735      C1736   1.424       .  A
C1735     Br1742   1.915       .  S
C1736      C1737   1.419       .  A
C1736      H1741   1.083       .  S
C1737      C1738   1.424       .  A
C1738     Br1739   1.919       .  S
C1743      C1744   1.414       .  A
C1743      C1748   1.414       .  A
C1743      H1750   1.083       .  S
C1744      C1745   1.423       .  A
C1745      C1746   1.426       .  A
C1745     Br1752   1.916       .  S
C1746      C1747   1.412       .  A
C1746      H1751   1.083       .  S
C1747      C1748   1.414       .  A
C1748     Br1749   1.920       .  S
C1753      C1754   1.412       .  A
C1753      C1758   1.415       .  A
C1753      H1760   1.083       .  S
C1754      C1755   1.427       .  A
C1755      C1756   1.429       .  A
C1755     Br1762   1.912       .  S
C1756      C1757   1.414       .  A
C1756      H1761   1.082       .  S
C1757      C1758   1.417       .  A
C1758     Br1759   1.906       .  S
C1763      C1764   1.415       .  A
C1763      C1768   1.424       .  A
C1763      H1770   1.076       .  S
C1764      C1765   1.419       .  A
C1765      C1766   1.417       .  A
C1765     Br1772   1.916       .  S
C1766      C1767   1.412       .  A
C1766      H1771   1.083       .  S
C1767      C1768   1.421       .  A
C1768     Br1769   1.921       .  S
C1773      C1774   1.414       .  A
C1773      C1778   1.419       .  A
C1773      H1780   1.083       .  S
C1774      C1775   1.422       .  A
C1775      C1776   1.425       .  A
C1775     Br1782   1.920       .  S
C1776      C1777   1.414       .  A
C1776      H1781   1.078       .  S
C1777      C1778   1.417       .  A
C1778     Br1779   1.916       .  S
C1783      C1784   1.407       .  A
C1783      C1788   1.418       .  A
C1783      H1790   1.083       .  S
C1784      C1785   1.417       .  A
C1785      C1786   1.414       .  A
C1785     Br1792   1.919       .  S
C1786      C1787   1.410       .  A
C1786      H1791   1.083       .  S
C1787      C1788   1.422       .  A
C1788     Br1789   1.916       .  S
C1793      C1794   1.392       .  A
C1793      C1798   1.384       .  A
C1793      H1800   1.084       .  S
C1794      C1795   1.407       .  A
C1795      C1796   1.381       .  A
C1795     Br1802   1.905       .  S
C1796      C1797   1.389       .  A
C1796      H1801   1.084       .  S
C1797      C1798   1.404       .  A
C1798     Br1799   1.905   1_554  S
C1803      C1804   1.390       .  A
C1803      C1808   1.379       .  A
C1803      H1810   1.084       .  S
C1804      C1805   1.406       .  A
C1805      C1806   1.381       .  A
C1805     Br1812   1.907   1_455  S
C1806      C1807   1.390       .  A
C1806      H1811   1.083       .  S
C1807      C1808   1.404       .  A
C1808     Br1809   1.906       .  S
C1813      C1814   1.411       .  A
C1813      C1818   1.415       .  A
C1813      H1820   1.083       .  S
C1814      C1815   1.422   1_655  A
C1815      C1816   1.411       .  A
C1815     Br1822   1.922       .  S
C1816      C1817   1.407   1_455  A
C1816      H1821   1.084       .  S
C1817      C1818   1.415       .  A
C1818     Br1819   1.911       .  S
C1823      C1824   1.409       .  A
C1823      C1828   1.407       .  A
C1823      H1830   1.083       .  S
C1824      C1825   1.417       .  A
C1825      C1826   1.416       .  A
C1825     Br1832   1.921       .  S
C1826      C1827   1.411       .  A
C1826      H1831   1.079       .  S
C1827      C1828   1.413       .  A
C1828     Br1829   1.917       .  S
C1833      C1834   1.409       .  A
C1833      C1838   1.418       .  A
C1833      H1840   1.078       .  S
C1834      C1835   1.427       .  A
C1835      C1836   1.419       .  A
C1835     Br1842   1.921       .  S
C1836      C1837   1.410       .  A
C1836      H1841   1.083       .  S
C1837      C1838   1.421       .  A
C1838     Br1839   1.906       .  S
C1843      C1844   1.384       .  A
C1843      C1848   1.377       .  A
C1843      H1850   1.081       .  S
C1844      C1845   1.403       .  A
C1845      C1846   1.389       .  A
C1845     Br1852   1.910       .  S
C1846      C1847   1.398       .  A
C1846      H1851   1.084       .  S
C1847      C1848   1.409       .  A
C1848     Br1849   1.905   1_554  S
C1853      C1854   1.390       .  A
C1853      C1858   1.382       .  A
C1853      H1860   1.084       .  S
C1854      C1855   1.404       .  A
C1855      C1856   1.382       .  A
C1855     Br1862   1.905       .  S
C1856      C1857   1.391       .  A
C1856      H1861   1.084       .  S
C1857      C1858   1.404       .  A
C1858     Br1859   1.903   1_556  S
C1863      C1864   1.396       .  A
C1863      C1868   1.391       .  A
C1863      H1870   1.084       .  S
C1864      C1865   1.410       .  A
C1865      C1866   1.378       .  A
C1865     Br1872   1.902       .  S
C1866      C1867   1.384       .  A
C1866      H1871   1.082       .  S
C1867      C1868   1.405       .  A
C1868     Br1869   1.906   1_565  S
C1873      C1874   1.391       .  A
C1873      C1878   1.384       .  A
C1873      H1880   1.084       .  S
C1874      C1875   1.407       .  A
C1875      C1876   1.385       .  A
C1875     Br1882   1.910       .  S
C1876      C1877   1.393       .  A
C1876      H1881   1.083       .  S
C1877      C1878   1.406       .  A
C1878     Br1879   1.905   1_565  S
C1883      C1884   1.411       .  A
C1883      C1888   1.411       .  A
C1883      H1890   1.083       .  S
C1884      C1885   1.417       .  A
C1885      C1886   1.414       .  A
C1885     Br1892   1.913       .  S
C1886      C1887   1.408       .  A
C1886      H1891   1.081       .  S
C1887      C1888   1.414       .  A
C1888     Br1889   1.919       .  S
C1893      C1894   1.407       .  A
C1893      C1898   1.408       .  A
C1893      H1900   1.083       .  S
C1894      C1895   1.421       .  A
C1895      C1896   1.426       .  A
C1895     Br1902   1.917       .  S
C1896      C1897   1.414       .  A
C1896      H1901   1.083       .  S
C1897      C1898   1.417       .  A
C1898     Br1899   1.914       .  S
C1903      C1904   1.409       .  A
C1903      C1908   1.417       .  A
C1903      H1910   1.080       .  S
C1904      C1905   1.426       .  A
C1905      C1906   1.420       .  A
C1905     Br1912   1.919   1_554  S
C1906      C1907   1.410       .  A
C1906      H1911   1.083   1_564  S
C1907      C1908   1.419       .  A
C1908     Br1909   1.904       .  S
C1913      C1914   1.406       .  A
C1913      C1918   1.396       .  A
C1913      H1920   1.083       .  S
C1914      C1915   1.415       .  A
C1915      C1916   1.371       .  A
C1915     Br1922   1.927       .  S
C1916      C1917   1.382       .  A
C1916      H1921   1.062       .  S
C1917      C1918   1.403       .  A
C1918     Br1919   1.913   1_455  S
C1923      C1924   1.400       .  A
C1923      C1928   1.386       .  A
C1923      H1930   1.084   1_655  S
C1924      C1925   1.398       .  A
C1925      C1926   1.383       .  A
C1925     Br1932   1.914       .  S
C1926      C1927   1.397       .  A
C1926      H1931   1.080       .  S
C1927      C1928   1.400       .  A
C1928     Br1929   1.915       .  S
C1933      C1934   1.401       .  A
C1933      C1938   1.394       .  A
C1933      H1940   1.084       .  S
C1934      C1935   1.411       .  A
C1935      C1936   1.371       .  A
C1935     Br1942   1.898       .  S
C1936      C1937   1.379       .  A
C1936      H1941   1.081       .  S
C1937      C1938   1.405       .  A
C1938     Br1939   1.915       .  S
C1943      C1944   1.390       .  A
C1943      C1948   1.381       .  A
C1943      H1950   1.084       .  S
C1944      C1945   1.405       .  A
C1945      C1946   1.379       .  A
C1945     Br1952   1.905       .  S
C1946      C1947   1.389       .  A
C1946      H1951   1.085       .  S
C1947      C1948   1.405       .  A
C1948     Br1949   1.908       .  S
C1953      C1954   1.403       .  A
C1953      C1958   1.407       .  A
C1953      H1960   1.084       .  S
C1954      C1955   1.408       .  A
C1955      C1956   1.411       .  A
C1955     Br1962   1.912       .  S
C1956      C1957   1.412       .  A
C1956      H1961   1.081       .  S
C1957      C1958   1.422       .  A
C1958     Br1959   1.921       .  S
C1963      C1964   1.416       .  A
C1963      C1968   1.422       .  A
C1963      H1970   1.083       .  S
C1964      C1965   1.425   1_455  A
C1965      C1966   1.412       .  A
C1965     Br1972   1.921       .  S
C1966      C1967   1.404   1_655  A
C1966      H1971   1.084       .  S
C1967      C1968   1.415       .  A
C1968     Br1969   1.913       .  S
C1973      C1974   1.405       .  A
C1973      C1978   1.408       .  A
C1973      H1980   1.084       .  S
C1974      C1975   1.414       .  A
C1975      C1976   1.412       .  A
C1975     Br1982   1.908       .  S
C1976      C1977   1.409       .  A
C1976      H1981   1.083       .  S
C1977      C1978   1.420       .  A
C1978     Br1979   1.919       .  S
C1983      C1984   1.409       .  A
C1983      C1988   1.410       .  A
C1983      H1990   1.083       .  S
C1984      C1985   1.418       .  A
C1985      C1986   1.411       .  A
C1985     Br1992   1.920       .  S
C1986      C1987   1.407       .  A
C1986      H1991   1.077       .  S
C1987      C1988   1.414       .  A
C1988     Br1989   1.918   1_565  S
C1993      C1994   1.411       .  A
C1993      C1998   1.418       .  A
C1993      H2000   1.083       .  S
C1994      C1995   1.414       .  A
C1995      C1996   1.406       .  A
C1995     Br2002   1.917   1_545  S
C1996      C1997   1.410       .  A
C1996      H2001   1.083       .  S
C1997      C1998   1.415       .  A
C1998     Br1999   1.913       .  S
C2003      C2004   1.402       .  A
C2003      C2008   1.406       .  A
C2003      H2010   1.083   1_565  S
C2004      C2005   1.416       .  A
C2005      C2006   1.418       .  A
C2005     Br2012   1.911       .  S
C2006      C2007   1.413       .  A
C2006      H2011   1.083       .  S
C2007      C2008   1.424       .  A
C2008     Br2009   1.922   1_565  S
C2013      C2014   1.411       .  A
C2013      C2018   1.416       .  A
C2013      H2020   1.083       .  S
C2014      C2015   1.420       .  A
C2015      C2016   1.410       .  A
C2015     Br2022   1.907       .  S
C2016      C2017   1.405       .  A
C2016      H2021   1.076       .  S
C2017      C2018   1.421       .  A
C2018     Br2019   1.918       .  S
C2023      C2024   1.414       .  A
C2023      C2028   1.413   1_655  A
C2023      H2030   1.083   1_655  S
C2024      C2025   1.422       .  A
C2025      C2026   1.421       .  A
C2025     Br2032   1.914       .  S
C2026      C2027   1.411       .  A
C2026      H2031   1.080       .  S
C2027      C2028   1.413   1_655  A
C2028     Br2029   1.914       .  S
C2033      C2034   1.398       .  A
C2033      C2038   1.391       .  A
C2033      H2040   1.084       .  S
C2034      C2035   1.408       .  A
C2035      C2036   1.377       .  A
C2035     Br2042   1.897       .  S
C2036      C2037   1.383       .  A
C2036      H2041   1.081       .  S
C2037      C2038   1.403       .  A
C2038     Br2039   1.909   1_655  S
C2043      C2044   1.397       .  A
C2043      C2048   1.390       .  A
C2043      H2050   1.084       .  S
C2044      C2045   1.406       .  A
C2045      C2046   1.378       .  A
C2045     Br2052   1.896   1_545  S
C2046      C2047   1.385       .  A
C2046      H2051   1.083       .  S
C2047      C2048   1.403       .  A
C2048     Br2049   1.909       .  S
C2053      C2054   1.401       .  A
C2053      C2058   1.387       .  A
C2053      H2060   1.084       .  S
C2054      C2055   1.399       .  A
C2055      C2056   1.386       .  A
C2055     Br2062   1.913       .  S
C2056      C2057   1.400       .  A
C2056      H2061   1.084   1_565  S
C2057      C2058   1.400       .  A
C2058     Br2059   1.916       .  S
C2063      C2064   1.401       .  A
C2063      C2068   1.387       .  A
C2063      H2070   1.084       .  S
C2064      C2065   1.397       .  A
C2065      C2066   1.381       .  A
C2065     Br2072   1.911   1_655  S
C2066      C2067   1.395       .  A
C2066      H2071   1.077   1_655  S
C2067      C2068   1.401       .  A
C2068     Br2069   1.915       .  S
C2073      C2074   1.411       .  A
C2073      C2078   1.403       .  A
C2073      H2080   1.083       .  S
C2074      C2075   1.420       .  A
C2075      C2076   1.419       .  A
C2075     Br2082   1.915       .  S
C2076      C2077   1.409       .  A
C2076      H2081   1.083       .  S
C2077      C2078   1.411       .  A
C2078     Br2079   1.921       .  S
C2083      C2084   1.413       .  A
C2083      C2088   1.416       .  A
C2083      H2090   1.083       .  S
C2084      C2085   1.419       .  A
C2085      C2086   1.403       .  A
C2085     Br2092   1.921       .  S
C2086      C2087   1.402       .  A
C2086      H2091   1.081       .  S
C2087      C2088   1.414       .  A
C2088     Br2089   1.916       .  S
C2093      C2094   1.411   1_565  A
C2093      C2098   1.408       .  A
C2093      H2100   1.083       .  S
C2094      C2095   1.423       .  A
C2095      C2096   1.424       .  A
C2095     Br2102   1.917       .  S
C2096      C2097   1.412       .  A
C2096      H2101   1.083       .  S
C2097      C2098   1.414   1_545  A
C2098     Br2099   1.922   1_655  S
C2103      C2104   1.382       .  A
C2103      C2108   1.377       .  A
C2103      H2110   1.079       .  S
C2104      C2105   1.406       .  A
C2105      C2106   1.398       .  A
C2105     Br2112   1.911       .  S
C2106      C2107   1.402       .  A
C2106      H2111   1.084       .  S
C2107      C2108   1.408       .  A
C2108     Br2109   1.891       .  S
C2113      C2114   1.398       .  A
C2113      C2118   1.388       .  A
C2113      H2120   1.082       .  S
C2114      C2115   1.408       .  A
C2115      C2116   1.378       .  A
C2115     Br2122   1.892   1_455  S
C2116      C2117   1.384       .  A
C2116      H2121   1.083       .  S
C2117      C2118   1.401       .  A
C2118     Br2119   1.911       .  S
C2123      C2124   1.396       .  A
C2123      C2128   1.391       .  A
C2123      H2130   1.084       .  S
C2124      C2125   1.408       .  A
C2125      C2126   1.376       .  A
C2125     Br2132   1.897   1_655  S
C2126      C2127   1.383       .  A
C2126      H2131   1.081       .  S
C2127      C2128   1.404       .  A
C2128     Br2129   1.903       .  S
C2133      C2134   1.390       .  A
C2133      C2138   1.383       .  A
C2133      H2140   1.084       .  S
C2134      C2135   1.405       .  A
C2135      C2136   1.383       .  A
C2135     Br2142   1.899       .  S
C2136      C2137   1.390       .  A
C2136      H2141   1.084       .  S
C2137      C2138   1.405       .  A
C2138     Br2139   1.900   1_556  S
C2143      C2144   1.408       .  A
C2143      C2148   1.412       .  A
C2143      H2150   1.075       .  S
C2144      C2145   1.417       .  A
C2145      C2146   1.413       .  A
C2145     Br2152   1.917       .  S
C2146      C2147   1.413       .  A
C2146      H2151   1.083       .  S
C2147      C2148   1.419       .  A
C2148     Br2149   1.915       .  S
C2153      C2154   1.410   1_655  A
C2153      C2158   1.409       .  A
C2153      H2160   1.083       .  S
C2154      C2155   1.424       .  A
C2155      C2156   1.423       .  A
C2155     Br2162   1.922       .  S
C2156      C2157   1.410       .  A
C2156      H2161   1.083       .  S
C2157      C2158   1.414   1_455  A
C2158     Br2159   1.916   1_556  S
C2163      C2164   1.411       .  A
C2163      C2168   1.418       .  A
C2163      H2170   1.080       .  S
C2164      C2165   1.424       .  A
C2165      C2166   1.420       .  A
C2165     Br2172   1.920       .  S
C2166      C2167   1.412       .  A
C2166      H2171   1.083       .  S
C2167      C2168   1.413       .  A
C2168     Br2169   1.911       .  S
C2173      C2174   1.412       .  A
C2173      C2178   1.413       .  A
C2173      H2180   1.081       .  S
C2174      C2175   1.422       .  A
C2175      C2176   1.412       .  A
C2175     Br2182   1.920   1_554  S
C2176      C2177   1.406       .  A
C2176      H2181   1.084   1_544  S
C2177      C2178   1.410       .  A
C2178     Br2179   1.915       .  S
C2183      C2184   1.408   1_565  A
C2183      C2188   1.412       .  A
C2183      H2190   1.084   1_455  S
C2184      C2185   1.411       .  A
C2185      C2186   1.412       .  A
C2185     Br2192   1.914       .  S
C2186      C2187   1.413       .  A
C2186      H2191   1.083       .  S
C2187      C2188   1.420   1_545  A
C2188     Br2189   1.920       .  S
C2193      C2194   1.408       .  A
C2193      C2198   1.418       .  A
C2193      H2200   1.082       .  S
C2194      C2195   1.414       .  A
C2195      C2196   1.414       .  A
C2195     Br2202   1.919   1_454  S
C2196      C2197   1.415       .  A
C2196      H2201   1.083       .  S
C2197      C2198   1.423       .  A
C2198     Br2199   1.914       .  S
C2203      C2204   1.409   1_554  A
C2203      C2208   1.408       .  A
C2203      H2210   1.083       .  S
C2204      C2205   1.422       .  A
C2205      C2206   1.420       .  A
C2205     Br2212   1.919       .  S
C2206      C2207   1.411       .  A
C2206      H2211   1.082       .  S
C2207      C2208   1.413   1_556  A
C2208     Br2209   1.919   1_565  S
C2213      C2214   1.403   1_545  A
C2213      C2218   1.407       .  A
C2213      H2220   1.083   1_655  S
C2214      C2215   1.410       .  A
C2215      C2216   1.415       .  A
C2215     Br2222   1.915       .  S
C2216      C2217   1.414       .  A
C2216      H2221   1.083       .  S
C2217      C2218   1.422   1_565  A
C2218     Br2219   1.922       .  S
C2223      C2224   1.416       .  A
C2223      C2228   1.422       .  A
C2223      H2230   1.083       .  S
C2224      C2225   1.424       .  A
C2225      C2226   1.412       .  A
C2225     Br2232   1.922   1_655  S
C2226      C2227   1.405       .  A
C2226      H2231   1.083   1_655  S
C2227      C2228   1.414       .  A
C2228     Br2229   1.914       .  S
