geometry optimzed in LAMMPS
_audit_creation_date              2020-11-30 
_audit_creation_method            'lammps2cif' 
_symmetry_space_group_name_H-M    'P1' 
_symmetry_Int_Tables_number       1 
_symmetry_cell_setting            triclinic 
loop_ 
_symmetry_equiv_pos_as_xyz 
  x,y,z 
_cell_length_a                    52.48039038 
_cell_length_b                    52.42862016215528 
_cell_length_c                    52.413370729105004 
_cell_angle_alpha                 89.96532604346044 
_cell_angle_beta                  89.89840351760108 
_cell_angle_gamma                 89.84842114425273 
loop_ 
_atom_site_label 
_atom_site_type_symbol 
_atom_site_fract_x 
_atom_site_fract_y 
_atom_site_fract_z 
_atom_site_charge 
C1          C  0.98468038  0.01690747  0.00715772     0.02600
C2          C  0.00139801  0.02325583  0.98691805     0.02600
C3          C  0.02218332  0.00706329  0.98073071     0.02600
C4          C  0.02739458  0.98545620  0.99624160     0.02600
C5          C  0.01083919  0.97917737  0.01678037     0.02600
C6          C  0.99009673  0.99560495  0.02295436     0.02600
O7          O  0.02796558  0.19935221  0.85798528    -0.79800
O8          O  0.97284028  0.29999882  0.86772447    -0.79900
O9          O  0.95899414  0.24816156  0.83697106    -0.79900
O10         O  0.04001645  0.25585470  0.83380107    -0.79800
O11         O  0.94097024  0.26285011  0.87148238    -0.79900
O12         O  0.06012653  0.23599057  0.86443924    -0.79900
O13         O  0.99597262  0.28719639  0.83478220    -0.79800
O14         O  0.00174081  0.21700318  0.83001390    -0.79900
C15         C  0.01997509  0.20214850  0.83519855     1.09800
C16         C  0.97827189  0.30076774  0.84408117     1.09700
C17         C  0.93969252  0.25783036  0.84778869     1.09900
C18         C  0.05998611  0.24486653  0.84190840     1.09700
O19         O  0.03829850  0.24966384  0.91365663    -0.79800
O20         O  0.96743374  0.24287231  0.91650677    -0.79900
O21         O  0.98771494  0.18985674  0.87620405    -0.79900
O22         O  0.01440805  0.30801071  0.88265155    -0.79800
O23         O  0.99887173  0.28669427  0.91491895    -0.79900
O24         O  0.00620256  0.20697917  0.90926374    -0.79900
O25         O  0.05185626  0.27610926  0.88380188    -0.79800
O26         O  0.95034459  0.22091585  0.88501780    -0.79900
Co27       Co  0.03025534  0.22505795  0.88644289     1.51500
Co28       Co  0.97289647  0.27095096  0.89225815     1.51700
Co29       Co  0.97686225  0.22170290  0.85734626     1.51600
Co30       Co  0.02333574  0.27892850  0.85887540     1.51500
O31         O  0.00091010  0.24917437  0.87366695    -1.41800
C32         C  0.05335553  0.26696692  0.90624443     1.09800
C33         C  0.95108757  0.22714102  0.90849800     1.09900
C34         C  0.99495793  0.18821938  0.89921416     1.09800
C35         C  0.00870535  0.30697190  0.90617146     1.09800
O36         O  0.86636479  0.02714778  0.20155925    -0.79800
O37         O  0.86417236  0.96809379  0.30068395    -0.79900
O38         O  0.84082260  0.95678288  0.24540813    -0.79900
O39         O  0.83756440  0.03718636  0.25446730    -0.79800
O40         O  0.87354787  0.93771759  0.26238099    -0.79900
O41         O  0.87023445  0.05813183  0.23996892    -0.79900
O42         O  0.83445312  0.99332176  0.28433526    -0.79800
O43         O  0.83671704  0.00079597  0.21560242    -0.79900
C44         C  0.84398540  0.01784524  0.20023955     1.09800
C45         C  0.84097342  0.97528660  0.29891891     1.09700
C46         C  0.85051057  0.93699740  0.25519706     1.09900
C47         C  0.84667527  0.05744976  0.24518584     1.09700
O48         O  0.91738084  0.03462749  0.25634075    -0.79800
O49         O  0.91999214  0.96461933  0.24944628    -0.79900
O50         O  0.88484950  0.98715473  0.19154185    -0.79900
O51         O  0.87951707  0.00946513  0.31146368    -0.79800
O52         O  0.91356810  0.99424646  0.29316874    -0.79900
O53         O  0.91634649  0.00485679  0.21191553    -0.79900
O54         O  0.88583035  0.04798611  0.28109058    -0.79800
O55         O  0.89148511  0.94930068  0.22244770    -0.79900
Co56       Co  0.89236908  0.02827588  0.22953195     1.51500
Co57       Co  0.89260899  0.96903654  0.27449675     1.51700
Co58       Co  0.86346507  0.97544323  0.22166330     1.51600
Co59       Co  0.85973639  0.02003935  0.27997990     1.51500
O60         O  0.87725920  0.99816483  0.25142700    -1.41800
C61         C  0.90930179  0.04787664  0.27481692     1.09800
C62         C  0.91443540  0.95154284  0.22998271     1.09900
C63         C  0.90761560  0.99520250  0.19163445     1.09800
C64         C  0.90307399  0.00416885  0.31246406     1.09800
C65         C  0.97160884  0.99157590  0.49848476     0.02600
C66         C  0.97832298  0.01281996  0.48297322     0.02600
C67         C  0.00022174  0.02761602  0.48886501     0.02600
C68         C  0.01710140  0.01953417  0.50843984     0.02600
C69         C  0.01039167  0.99827689  0.52395065     0.02600
C70         C  0.98825142  0.98370439  0.51834960     0.02600
O71         O  0.02421733  0.80513957  0.63657904    -0.79800
O72         O  0.97699574  0.69919988  0.63240679    -0.79900
O73         O  0.95897163  0.75306080  0.66058326    -0.79900
O74         O  0.03995527  0.74974070  0.66446401    -0.79800
O75         O  0.94254707  0.73467486  0.62715775    -0.79900
O76         O  0.05884474  0.77012591  0.63338281    -0.79900
O77         O  0.99880543  0.71544262  0.66435031    -0.79800
O78         O  0.99983126  0.78694006  0.66561155    -0.79900
C79         C  0.01539801  0.80409148  0.65918652     1.09800
C80         C  0.98383481  0.69875308  0.65569897     1.09700
C81         C  0.94055436  0.74143330  0.65033327     1.09900
C82         C  0.05899711  0.76208097  0.65624811     1.09700
O83         O  0.03881046  0.75243443  0.58443174    -0.79800
O84         O  0.96733885  0.75363915  0.58125354    -0.79900
O85         O  0.98376307  0.81094294  0.61770970    -0.79900
O86         O  0.01925251  0.69416937  0.61691478    -0.79800
O87         O  0.00199456  0.71379761  0.58462634    -0.79900
O88         O  0.00408583  0.79318853  0.58600328    -0.79900
O89         O  0.05467823  0.72871179  0.61530862    -0.79800
O90         O  0.94856875  0.77687877  0.61098979    -0.79900
Co91       Co  0.02881492  0.77781779  0.61014907     1.51500
Co92       Co  0.97479029  0.72760817  0.60680765     1.51700
Co93       Co  0.97511478  0.77927856  0.63863201     1.51600
Co94       Co  0.02571311  0.72473337  0.63996452     1.51500
O95         O  0.00109453  0.75237553  0.62399602    -1.41800
C96         C  0.05540209  0.73693043  0.59246925     1.09800
C97         C  0.95120040  0.77025949  0.58777530     1.09900
C98         C  0.99209812  0.81215099  0.59495225     1.09800
C99         C  0.01308066  0.69434162  0.59350108     1.09800
O100        O  0.20001845  0.86882938  0.02307308    -0.79800
O101        O  0.30409318  0.85538980  0.97266193    -0.79900
O102        O  0.24665935  0.83286925  0.95918085    -0.79900
O103        O  0.25108830  0.83491883  0.03833504    -0.79800
O104        O  0.26840667  0.86262816  0.93967508    -0.79900
O105        O  0.23612937  0.86953802  0.05611754    -0.79900
O106        O  0.28427682  0.82767380  0.99745375    -0.79800
O107        O  0.21211385  0.83531417  0.00063194    -0.79900
C108        C  0.19736229  0.84560336  0.01680105     1.09800
C109        C  0.30045257  0.83261768  0.98033372     1.09700
C110        C  0.25897312  0.84036293  0.93980695     1.09900
C111        C  0.24059763  0.84571343  0.05718484     1.09700
O112        O  0.25890573  0.91425921  0.03142391    -0.79800
O113        O  0.25543111  0.91244936  0.96074859    -0.79900
O114        O  0.19535081  0.88430003  0.98088499    -0.79900
O115        O  0.31176571  0.87297143  0.01362945    -0.79800
O116        O  0.29663076  0.90669299  0.99442152    -0.79900
O117        O  0.21712484  0.91516218  0.99827260    -0.79900
O118        O  0.27890390  0.88182612  0.04928389    -0.79800
O119        O  0.22904030  0.88373014  0.94513941    -0.79900
Co120      Co  0.23035496  0.89144112  0.02458903     1.51500
Co121      Co  0.27891216  0.88446066  0.96960989     1.51700
Co122      Co  0.22357754  0.85899243  0.97372906     1.51600
Co123      Co  0.27885251  0.85473382  0.02243021     1.51500
O124        O  0.25287503  0.87230497  0.99755870    -1.41800
C125        C  0.27489777  0.90568194  0.04720105     1.09800
C126        C  0.23885559  0.90590501  0.94457682     1.09900
C127        C  0.19696230  0.90750324  0.98752399     1.09800
C128        C  0.31438894  0.89604719  0.00679051     1.09800
O129        O  0.99892519  0.78703331  0.16282973    -0.79800
O130        O  0.99810737  0.71949553  0.16842297    -0.79900
O131        O  0.94105676  0.76642736  0.12432202    -0.79900
O132        O  0.05962518  0.73331642  0.13161131    -0.79800
O133        O  0.95761389  0.75183310  0.15923783    -0.79900
O134        O  0.04071141  0.75360552  0.16241806    -0.79900
O135        O  0.02468438  0.69949808  0.14217866    -0.79800
O136        O  0.97532958  0.80183873  0.13107979    -0.79900
C137        C  0.98293445  0.80291756  0.15417791     1.09800
C138        C  0.01603388  0.70391418  0.16454868     1.09700
C139        C  0.93879748  0.76148114  0.14784148     1.09900
C140        C  0.06032986  0.74245992  0.15394854     1.09700
O141        O  0.05219297  0.77301315  0.11100384    -0.79800
O142        O  0.94946373  0.72368280  0.11099826    -0.79900
O143        O  0.00086164  0.78806522  0.08303711    -0.79900
O144        O  0.00298497  0.70503694  0.09016379    -0.79800
O145        O  0.98421239  0.69020512  0.12394110    -0.79900
O146        O  0.01730733  0.80789483  0.11538417    -0.79900
O147        O  0.03669265  0.74532621  0.08311061    -0.79800
O148        O  0.96796905  0.74660279  0.08059786    -0.79900
Co149      Co  0.02503477  0.77756734  0.13782762     1.51500
Co150      Co  0.97453821  0.72392454  0.14023113     1.51700
Co151      Co  0.97402328  0.77347036  0.10535097     1.51600
Co152      Co  0.02823110  0.72295566  0.11173380     1.51500
O153        O  0.00048823  0.74947490  0.12366747    -1.41800
C154        C  0.05101929  0.76392601  0.08842363     1.09800
C155        C  0.95215066  0.72991100  0.08760187     1.09900
C156        C  0.01119667  0.80779665  0.09205919     1.09800
C157        C  0.99149688  0.68699536  0.10113239     1.09800
C158        C  0.26719007  0.77051799  0.24238308     0.02600
C159        C  0.24718816  0.76391365  0.22555820     0.02600
C160        C  0.23048855  0.74362710  0.23187858     0.02600
C161        C  0.23533071  0.72821495  0.25369263     0.02600
C162        C  0.25581202  0.73447774  0.27026821     0.02600
C163        C  0.27230161  0.75503515  0.26397529     0.02600
O164        O  0.21600670  0.66651205  0.49905502    -0.79800
O165        O  0.28481739  0.66405185  0.49449775    -0.79900
O166        O  0.23760374  0.63105854  0.55949676    -0.79900
O167        O  0.26076203  0.62333074  0.43908809    -0.79800
O168        O  0.25462258  0.66296646  0.53929654    -0.79900
O169        O  0.24577194  0.65819638  0.45566483    -0.79900
O170        O  0.29834684  0.63222431  0.47014271    -0.79800
O171        O  0.20027577  0.63954366  0.52768211    -0.79900
C172        C  0.20234925  0.66201007  0.51842886     1.09800
C173        C  0.29932092  0.65553632  0.47709654     1.09700
C174        C  0.24484721  0.65402179  0.55946571     1.09900
C175        C  0.25542926  0.64677235  0.43676056     1.09700
O176        O  0.21956160  0.60822390  0.45093581    -0.79800
O177        O  0.27774563  0.61238966  0.54970916    -0.79900
O178        O  0.20682739  0.58769618  0.50613768    -0.79900
O179        O  0.28916312  0.58434050  0.49757687    -0.79800
O180        O  0.30911984  0.61773604  0.51166363    -0.79900
O181        O  0.18860453  0.62027691  0.48816197    -0.79900
O182        O  0.24517146  0.57923064  0.46811904    -0.79800
O183        O  0.25014720  0.58316657  0.53662511    -0.79900
Co184      Co  0.22042240  0.63806502  0.47547456     1.51500
Co185      Co  0.27849366  0.63906853  0.52174585     1.51700
Co186      Co  0.22563178  0.61042578  0.52951340     1.51600
Co187      Co  0.27128782  0.60532960  0.47162496     1.51500
O188        O  0.24897621  0.62332210  0.49962410    -1.41800
C189        C  0.22671177  0.58507830  0.45380254     1.09800
C190        C  0.26938710  0.58950856  0.54970416     1.09900
C191        C  0.18734730  0.59747494  0.49599382     1.09800
C192        C  0.30934138  0.59424583  0.50612071     1.09800
C193        C  0.23690673  0.76843669  0.75590258     0.02600
C194        C  0.22837916  0.75104977  0.73692230     0.02600
C195        C  0.24373600  0.72945403  0.73079123     0.02600
C196        C  0.26567771  0.72350289  0.74559694     0.02600
C197        C  0.27402086  0.74071642  0.76461979     0.02600
C198        C  0.25886567  0.76233093  0.77057126     0.02600
O199        O  0.44798465  0.76667152  0.88565555    -0.79800
O200        O  0.55445694  0.72469315  0.89269487    -0.79900
O201        O  0.50142773  0.70346558  0.91243544    -0.79900
O202        O  0.49756241  0.78676337  0.91585904    -0.79800
O203        O  0.52280858  0.68857554  0.88020637    -0.79900
O204        O  0.48061697  0.80392850  0.88214484    -0.79900
O205        O  0.53327235  0.74747944  0.92140094    -0.79800
O206        O  0.46481395  0.74219235  0.91570535    -0.79900
C207        C  0.44776971  0.75755216  0.90822704     1.09800
C208        C  0.55013556  0.73119174  0.91581505     1.09700
C209        C  0.51421935  0.68561353  0.90255581     1.09900
C210        C  0.48641064  0.80550329  0.90552067     1.09700
O211        O  0.50261137  0.78357838  0.83608367    -0.79800
O212        O  0.50798374  0.71401087  0.83375162    -0.79900
O213        O  0.44527053  0.72539930  0.86699147    -0.79900
O214        O  0.56014552  0.76706979  0.87736643    -0.79800
O215        O  0.54557014  0.75004682  0.84269441    -0.79900
O216        O  0.46265126  0.74670349  0.83581426    -0.79900
O217        O  0.52385721  0.80011408  0.86858253    -0.79800
O218        O  0.48249824  0.69324156  0.86029863    -0.79900
Co219      Co  0.47608633  0.77248507  0.86029802     1.51500
Co220      Co  0.53036672  0.72190103  0.86248035     1.51700
Co221      Co  0.47612418  0.71856218  0.88892157     1.51600
Co222      Co  0.52617574  0.77281975  0.89516403     1.51500
O223        O  0.50210712  0.74646904  0.87668320    -1.41800
C224        C  0.51722026  0.80051212  0.84520411     1.09800
C225        C  0.49180244  0.69670816  0.83803962     1.09900
C226        C  0.44413619  0.73371934  0.84434770     1.09800
C227        C  0.56346418  0.76109190  0.85418436     1.09800
C228        C  0.74015259  0.26850091  0.73482821     0.02600
C229        C  0.76154385  0.27429470  0.75028885     0.02600
C230        C  0.76837501  0.25780393  0.77075262     0.02600
C231        C  0.75250788  0.23646590  0.77650690     0.02600
C232        C  0.73101703  0.23083788  0.76099741     0.02600
C233        C  0.72410167  0.24771202  0.74102448     0.02600
O234        O  0.88423440  0.44899673  0.77322770    -0.79800
O235        O  0.88868110  0.55179554  0.72223340    -0.79900
O236        O  0.91328390  0.49776802  0.70834653    -0.79900
O237        O  0.91096170  0.50195306  0.79028552    -0.79800
O238        O  0.88148246  0.51604495  0.68907424    -0.79900
O239        O  0.87695969  0.48485120  0.80679343    -0.79900
O240        O  0.91722806  0.53493254  0.74848757    -0.79800
O241        O  0.91529926  0.46458737  0.74935418    -0.79900
C242        C  0.90764886  0.44980427  0.76675209     1.09800
C243        C  0.91155861  0.54970517  0.73023232     1.09700
C244        C  0.90444030  0.50855688  0.68881043     1.09900
C245        C  0.90018035  0.49105322  0.80890561     1.09700
O246        O  0.83159605  0.50223826  0.78121491    -0.79800
O247        O  0.83391439  0.50063826  0.71296189    -0.79900
O248        O  0.86857274  0.44152828  0.73131564    -0.79900
O249        O  0.87062598  0.56042283  0.76294732    -0.79800
O250        O  0.83791817  0.54258757  0.74510765    -0.79900
O251        O  0.83556350  0.46017307  0.74832836    -0.79900
O252        O  0.86119775  0.52680325  0.79870108    -0.79800
O253        O  0.86316184  0.47557343  0.69562746    -0.79900
Co254      Co  0.85752323  0.47631447  0.77463074     1.51500
Co255      Co  0.86053025  0.52563403  0.72004889     1.51700
Co256      Co  0.88985302  0.47261963  0.72336384     1.51600
Co257      Co  0.88975150  0.52818381  0.77290396     1.51500
O258        O  0.87460599  0.50067436  0.74781559    -1.41800
C259        C  0.83806516  0.51969671  0.79650942     1.09800
C260        C  0.84034562  0.48397468  0.69680965     1.09900
C261        C  0.84520160  0.44095874  0.73730794     1.09800
C262        C  0.84768887  0.56187099  0.75557345     1.09800
O263        O  0.99544282  0.21585956  0.33573940    -0.79800
O264        O  0.99366547  0.28605531  0.33224416    -0.79900
O265        O  0.94036196  0.23519211  0.37747438    -0.79900
O266        O  0.05635226  0.27108499  0.36309183    -0.79800
O267        O  0.95455331  0.25210831  0.34237292    -0.79900
O268        O  0.03601411  0.25071424  0.33326921    -0.79900
O269        O  0.02099635  0.30533648  0.35782977    -0.79800
O270        O  0.97492171  0.20037027  0.36917164    -0.79900
C271        C  0.98020051  0.19990929  0.34544369     1.09800
C272        C  0.01110392  0.30216336  0.33583099     1.09700
C273        C  0.93691880  0.24077552  0.35417671     1.09900
C274        C  0.05573028  0.26238883  0.34059573     1.09700
O275        O  0.05275094  0.23043897  0.38251875    -0.79800
O276        O  0.94813336  0.27779536  0.39202316    -0.79900
O277        O  0.00290182  0.21415789  0.41523186    -0.79900
O278        O  0.00321705  0.29581479  0.41069822    -0.79800
O279        O  0.98177948  0.31257765  0.37952582    -0.79900
O280        O  0.01826912  0.19512333  0.38165794    -0.79900
O281        O  0.03812166  0.25585807  0.41284301    -0.79800
O282        O  0.96909595  0.25481368  0.42059357    -0.79900
Co283      Co  0.02321418  0.22577066  0.35864063     1.51500
Co284      Co  0.97180464  0.27949564  0.36168994     1.51700
Co285      Co  0.97440173  0.22852727  0.39491055     1.51600
Co286      Co  0.02696727  0.27978134  0.38631329     1.51500
O287        O  0.99910865  0.25334296  0.37529925    -1.41800
C288        C  0.05430578  0.23982461  0.40489752     1.09800
C289        C  0.95262152  0.27146136  0.41507240     1.09900
C290        C  0.01349810  0.19485280  0.40536029     1.09800
C291        C  0.99129595  0.31463634  0.40166171     1.09800
C292        C  0.23024637  0.27333830  0.23939993     0.02600
C293        C  0.22461901  0.25813373  0.26106727     0.02600
C294        C  0.24034945  0.23702519  0.26734282     0.02600
C295        C  0.26064383  0.23008744  0.25085092     0.02600
C296        C  0.26667203  0.24561274  0.22954279     0.02600
C297        C  0.25064987  0.26641973  0.22300183     0.02600
O298        O  0.21745474  0.33613898  0.99380595    -0.79800
O299        O  0.28679254  0.33797702  0.99730178    -0.79900
O300        O  0.23736172  0.37571515  0.93668456    -0.79900
O301        O  0.26456910  0.37295201  0.05586994    -0.79800
O302        O  0.25520824  0.34236504  0.95378393    -0.79900
O303        O  0.24849405  0.34003685  0.03644095    -0.79900
O304        O  0.30114529  0.36799268  0.02326255    -0.79800
O305        O  0.20072357  0.36572497  0.96864575    -0.79900
C306        C  0.20275568  0.34256947  0.97588583     1.09800
C307        C  0.30170996  0.34516160  0.01485980     1.09700
C308        C  0.24464610  0.35279284  0.93476055     1.09900
C309        C  0.25905621  0.34946190  0.05587715     1.09700
O310        O  0.22281904  0.38872637  0.04735713    -0.79800
O311        O  0.27776406  0.39353658  0.94623737    -0.79900
O312        O  0.20889818  0.41518506  0.99434913    -0.79900
O313        O  0.29037038  0.41793861  0.00071330    -0.79800
O314        O  0.30992129  0.38588703  0.98283130    -0.79900
O315        O  0.19062223  0.38156367  0.01007436    -0.79900
O316        O  0.24715568  0.41986347  0.03249325    -0.79800
O317        O  0.25095698  0.42159526  0.96319270    -0.79900
Co318      Co  0.22266738  0.36202537  0.01983236     1.51500
Co319      Co  0.27946481  0.36495152  0.97217692     1.51700
Co320      Co  0.22648859  0.39427348  0.96852758     1.51600
Co321      Co  0.27361479  0.39447222  0.02521640     1.51500
O322        O  0.25059110  0.37885279  0.99642661    -1.41800
C323        C  0.22896680  0.41221159  0.04638859     1.09800
C324        C  0.26929159  0.41628114  0.94848481     1.09900
C325        C  0.18942060  0.40489408  0.00385828     1.09800
C326        C  0.31024075  0.40878893  0.99050455     1.09800
C327        C  0.25849087  0.23269682  0.72745792     0.02600
C328        C  0.23712202  0.22686705  0.74317178     0.02600
C329        C  0.23062873  0.24359810  0.76353702     0.02600
C330        C  0.24636648  0.26492755  0.76918703     0.02600
C331        C  0.26685721  0.27149706  0.75276173     0.02600
C332        C  0.27380126  0.25434635  0.73298114     0.02600
O333        O  0.55373519  0.27505392  0.61303597    -0.79800
O334        O  0.44834326  0.22627374  0.60998360    -0.79900
O335        O  0.50313930  0.21154992  0.58305616    -0.79900
O336        O  0.50038047  0.29047080  0.58400458    -0.79800
O337        O  0.48402597  0.19243765  0.61474364    -0.79900
O338        O  0.51787822  0.30889043  0.61682358    -0.79900
O339        O  0.46567714  0.25049390  0.58012435    -0.79800
O340        O  0.53681415  0.25269652  0.58179429    -0.79900
C341        C  0.55373869  0.26761937  0.58993896     1.09800
C342        C  0.45036747  0.23314688  0.58679255     1.09700
C343        C  0.49205675  0.19207368  0.59188665     1.09900
C344        C  0.51171708  0.30945735  0.59339736     1.09700
O345        O  0.49862374  0.28426114  0.66335211    -0.79800
O346        O  0.50076671  0.21417501  0.66294937    -0.79900
O347        O  0.55896342  0.23323262  0.62928055    -0.79900
O348        O  0.44246688  0.26785850  0.62718783    -0.79800
O349        O  0.45959102  0.24838870  0.65983731    -0.79900
O350        O  0.54014935  0.25151184  0.66159541    -0.79900
O351        O  0.47635408  0.30327539  0.63314402    -0.79800
O352        O  0.52498134  0.19838765  0.63230211    -0.79900
Co353      Co  0.52527583  0.27742942  0.63844385     1.51500
Co354      Co  0.47546322  0.22304079  0.63679130     1.51700
Co355      Co  0.52832308  0.22627008  0.60670746     1.51600
Co356      Co  0.47381617  0.27583482  0.60632761     1.51500
O357        O  0.50065990  0.25055884  0.62211437    -1.41800
C358        C  0.48303251  0.30110965  0.65637341     1.09800
C359        C  0.51705646  0.19812395  0.65525334     1.09900
C360        C  0.55926810  0.23989360  0.65255600     1.09800
C361        C  0.44108835  0.26050203  0.65020301     1.09800
O362        O  0.33446809  0.99690453  0.21099213    -0.79800
O363        O  0.32500079  0.99986599  0.28114000    -0.79900
O364        O  0.37186245  0.94245168  0.23603310    -0.79900
O365        O  0.35803615  0.05964675  0.26596705    -0.79800
O366        O  0.33580608  0.95820744  0.24970328    -0.79900
O367        O  0.32963671  0.03919844  0.24359913    -0.79900
O368        O  0.35055456  0.02636332  0.30148113    -0.79800
O369        O  0.36875117  0.97510744  0.19942039    -0.79900
C370        C  0.34507631  0.97986819  0.19756458     1.09800
C371        C  0.32839936  0.01740350  0.29720969     1.09700
C372        C  0.34821202  0.93970916  0.24033296     1.09900
C373        C  0.33620785  0.05899229  0.25567564     1.09700
O374        O  0.38034888  0.05434447  0.22691545    -0.79800
O375        O  0.38228874  0.95137420  0.27908573    -0.79900
O376        O  0.41392569  0.00247535  0.21603022    -0.79900
O377        O  0.40326713  0.00671668  0.29582112    -0.79800
O378        O  0.37022715  0.98682364  0.31103251    -0.79900
O379        O  0.38244291  0.01774295  0.19351406    -0.79900
O380        O  0.40856872  0.03991455  0.25463259    -0.79800
O381        O  0.41452326  0.96936905  0.25887034    -0.79900
Co382      Co  0.35680777  0.02480875  0.22153950     1.51500
Co383      Co  0.35367787  0.97639089  0.27753722     1.51700
Co384      Co  0.39156577  0.97518641  0.22981907     1.51600
Co385      Co  0.38043992  0.03042167  0.27737616     1.51500
O386        O  0.37053239  0.00170483  0.25147230    -1.41800
C387        C  0.40200478  0.05577052  0.23771783     1.09800
C388        C  0.40602972  0.95289011  0.27433211     1.09900
C389        C  0.40590284  0.01214634  0.19537261     1.09800
C390        C  0.39287237  0.99475657  0.31394037     1.09800
C391        C  0.49223013  0.02136660  0.51624721     0.02600
C392        C  0.47660315  0.01582170  0.49487748     0.02600
C393        C  0.48326420  0.99544441  0.47834934     0.02600
C394        C  0.50426789  0.97940375  0.48440541     0.02600
C395        C  0.52025990  0.98536306  0.50545597     0.02600
C396        C  0.51338707  0.00552679  0.52226766     0.02600
O397        O  0.46512321  0.74511014  0.41422538    -0.79800
O398        O  0.53396346  0.75065775  0.41552581    -0.79900
O399        O  0.48931478  0.68935444  0.37495919    -0.79900
O400        O  0.51207202  0.81007001  0.38119991    -0.79800
O401        O  0.50427909  0.70809974  0.40861181    -0.79900
O402        O  0.49506954  0.78937156  0.41291774    -0.79900
O403        O  0.54987950  0.77856567  0.38806563    -0.79800
O404        O  0.45122990  0.72035603  0.38293996    -0.79900
C405        C  0.45157018  0.72681098  0.40639543     1.09800
C406        C  0.54807058  0.76945272  0.41058913     1.09700
C407        C  0.49508840  0.68844623  0.39840777     1.09900
C408        C  0.50478506  0.80966562  0.40425775     1.09700
O409        O  0.47186649  0.80006890  0.36310729    -0.79800
O410        O  0.53009062  0.70117523  0.35885360    -0.79900
O411        O  0.46104732  0.74715069  0.33457158    -0.79900
O412        O  0.54225925  0.75667212  0.33647460    -0.79800
O413        O  0.56076791  0.73885849  0.36900051    -0.79900
O414        O  0.44081097  0.76185131  0.36772400    -0.79900
O415        O  0.49866691  0.78717609  0.33300147    -0.79800
O416        O  0.50444959  0.71723781  0.32946336    -0.79900
Co417      Co  0.47118563  0.77206418  0.38919830     1.51500
Co418      Co  0.52945100  0.72660176  0.38776658     1.51700
Co419      Co  0.47850406  0.72143730  0.35589594     1.51600
Co420      Co  0.52376816  0.78016622  0.35971393     1.51500
O421        O  0.50071926  0.75013382  0.37303749    -1.41800
C422        C  0.47952985  0.80013095  0.34002121     1.09800
C423        C  0.52311066  0.70332683  0.33564031     1.09900
C424        C  0.44092384  0.75616981  0.34422781     1.09800
C425        C  0.56180868  0.74648673  0.34611670     1.09800
O426        O  0.58102768  0.96556638  0.75499565    -0.79800
O427        O  0.57938353  0.03531164  0.74944207    -0.79900
O428        O  0.61674266  0.98917071  0.81240317    -0.79900
O429        O  0.61727493  0.01289689  0.69233854    -0.79800
O430        O  0.58363320  0.00526030  0.79318733    -0.79900
O431        O  0.58477285  0.99579227  0.71149788    -0.79900
O432        O  0.60922960  0.05060552  0.72383158    -0.79800
O433        O  0.61065646  0.95123924  0.78149054    -0.79900
C434        C  0.58758567  0.95206642  0.77386767     1.09800
C435        C  0.58598385  0.04880930  0.73062175     1.09700
C436        C  0.59343866  0.99550888  0.81293280     1.09900
C437        C  0.59417515  0.00583882  0.69173432     1.09700
O438        O  0.63544133  0.97250173  0.70299207    -0.79800
O439        O  0.63273201  0.03016560  0.80221861    -0.79900
O440        O  0.66066592  0.96079210  0.75731131    -0.79900
O441        O  0.65883121  0.04229532  0.74874211    -0.79800
O442        O  0.62571880  0.06163626  0.76450422    -0.79900
O443        O  0.62829623  0.94090345  0.74091258    -0.79900
O444        O  0.66395299  0.99933252  0.71863156    -0.79800
O445        O  0.66340261  0.00507763  0.78758207    -0.79900
Co446      Co  0.60754818  0.97160596  0.72957498     1.51500
Co447      Co  0.60569578  0.03020578  0.77523669     1.51700
Co448      Co  0.63766042  0.97860083  0.78171336     1.51600
Co449      Co  0.63707466  0.02430392  0.72370432     1.51500
O450        O  0.62187033  0.00114302  0.75257261    -1.41800
C451        C  0.65823024  0.98076910  0.70451908     1.09800
C452        C  0.65579956  0.02242021  0.80257975     1.09900
C453        C  0.65150444  0.94075926  0.74755934     1.09800
C454        C  0.64911587  0.06209321  0.75842796     1.09800
C455        C  0.48786682  0.00095336  0.02690958     0.02600
C456        C  0.48070401  0.98048700  0.01073615     0.02600
C457        C  0.49688237  0.97282271  0.99041424     0.02600
C458        C  0.51889431  0.98736292  0.98458127     0.02600
C459        C  0.52634406  0.00758584  0.00098681     0.02600
C460        C  0.51019824  0.01517705  0.02138223     0.02600
O461        O  0.46227358  0.24801213  0.08371614    -0.79800
O462        O  0.53270011  0.24233371  0.08243395    -0.79900
O463        O  0.48582876  0.30646616  0.11745298    -0.79900
O464        O  0.51059251  0.18688325  0.12182770    -0.79800
O465        O  0.50194627  0.28587865  0.08511521    -0.79900
O466        O  0.49346261  0.20500654  0.08866439    -0.79900
O467        O  0.54832260  0.21801510  0.11320793    -0.79800
O468        O  0.44817899  0.27518646  0.11292927    -0.79900
C469        C  0.44861121  0.26689848  0.09007216     1.09800
C470        C  0.54669010  0.22410180  0.08972841     1.09700
C471        C  0.49240509  0.30609220  0.09419425     1.09900
C472        C  0.50384026  0.18568357  0.09862561     1.09700
O473        O  0.47021471  0.19764459  0.13963035    -0.79800
O474        O  0.52686306  0.29726562  0.13363404    -0.79900
O475        O  0.45809779  0.25303972  0.16335276    -0.79900
O476        O  0.54005607  0.24419781  0.16211527    -0.79800
O477        O  0.55847944  0.25966199  0.12825977    -0.79900
O478        O  0.43854958  0.23499929  0.13152293    -0.79900
O479        O  0.49671353  0.21434235  0.16787194    -0.79800
O480        O  0.50229037  0.28341397  0.16500133    -0.79900
Co481      Co  0.46907070  0.22337996  0.11097424     1.51500
Co482      Co  0.52713695  0.26915893  0.10773957     1.51700
Co483      Co  0.47571239  0.27654592  0.13958835     1.51600
Co484      Co  0.52185058  0.21868079  0.14091580     1.51500
O485        O  0.49840966  0.24695505  0.12475084    -1.41800
C486        C  0.47801607  0.20026914  0.16251445     1.09800
C487        C  0.51922960  0.29842187  0.15670889     1.09900
C488        C  0.43812303  0.24315843  0.15426174     1.09800
C489        C  0.55931366  0.25440975  0.15185684     1.09800
O490        O  0.19774615  0.14479848  0.47119876    -0.79800
O491        O  0.29970629  0.13488829  0.52355522    -0.79900
O492        O  0.24892180  0.16505945  0.53800931    -0.79900
O493        O  0.25333658  0.16590801  0.45677114    -0.79800
O494        O  0.26300582  0.13083704  0.55676236    -0.79900
O495        O  0.23312654  0.13497942  0.43803523    -0.79900
O496        O  0.28580509  0.16640608  0.49915719    -0.79800
O497        O  0.21667752  0.17261585  0.49664737    -0.79900
C498        C  0.20160045  0.16765512  0.47857035     1.09800
C499        C  0.30097482  0.15793889  0.51587691     1.09700
C500        C  0.25859971  0.15461916  0.55741643     1.09900
C501        C  0.24215276  0.15737800  0.43724901     1.09700
O502        O  0.24559717  0.08669580  0.46234363    -0.79800
O503        O  0.24321621  0.08570400  0.53174825    -0.79900
O504        O  0.18796836  0.12818806  0.51223544    -0.79900
O505        O  0.30651457  0.11822724  0.48195589    -0.79800
O506        O  0.28603265  0.08658697  0.49924635    -0.79900
O507        O  0.20306797  0.09377255  0.49458780    -0.79900
O508        O  0.27264035  0.11449265  0.44573113    -0.79800
O509        O  0.22068843  0.11758269  0.54805149    -0.79900
Co510      Co  0.22207816  0.11497244  0.46937587     1.51500
Co511      Co  0.27073940  0.10994290  0.52504486     1.51700
Co512      Co  0.22128821  0.14539321  0.52164314     1.51600
Co513      Co  0.27676941  0.14116673  0.47311276     1.51500
O514        O  0.24770801  0.12776294  0.49727088    -1.41800
C515        C  0.26233298  0.09246920  0.44595745     1.09800
C516        C  0.22578386  0.09384368  0.54634534     1.09900
C517        C  0.18476956  0.10519689  0.50548234     1.09800
C518        C  0.30617039  0.09515050  0.48908124     1.09800
C519        C  0.76985198  0.76821602  0.26012992     0.02600
C520        C  0.74928140  0.76227751  0.27667373     0.02600
C521        C  0.73285384  0.74173064  0.27044820     0.02600
C522        C  0.73821206  0.72590910  0.24902555     0.02600
C523        C  0.75793085  0.73276724  0.23171428     0.02600
C524        C  0.77469556  0.75295309  0.23819246     0.02600
O525        O  0.61702742  0.55098183  0.27375745    -0.79800
O526        O  0.61677146  0.44603569  0.22396327    -0.79900
O527        O  0.59191854  0.50149199  0.20697151    -0.79900
O528        O  0.58576071  0.49761333  0.28648810    -0.79800
O529        O  0.62518323  0.48178759  0.19132235    -0.79900
O530        O  0.61695047  0.51517577  0.30753646    -0.79900
O531        O  0.58532777  0.46391065  0.24560859    -0.79800
O532        O  0.58730796  0.53643788  0.24790024    -0.79900
C533        C  0.59467940  0.55233154  0.26449439     1.09800
C534        C  0.59317132  0.44808609  0.22928022     1.09700
C535        C  0.60233774  0.48935277  0.18886136     1.09900
C536        C  0.59368171  0.50876835  0.30629125     1.09700
O537        O  0.66540395  0.49533981  0.28883564    -0.79800
O538        O  0.67083760  0.49830286  0.21829132    -0.79900
O539        O  0.63691707  0.55623784  0.23332182    -0.79900
O540        O  0.63050689  0.43926747  0.26655889    -0.79800
O541        O  0.66448017  0.45753726  0.25138084    -0.79900
O542        O  0.66716592  0.53734673  0.25503977    -0.79900
O543        O  0.63278788  0.47294359  0.30296906    -0.79800
O544        O  0.64297224  0.52247905  0.19802309    -0.79900
Co545      Co  0.64153195  0.52231284  0.27853812     1.51500
Co546      Co  0.64404732  0.47310655  0.22386173     1.51700
Co547      Co  0.61464223  0.52637375  0.22389831     1.51600
Co548      Co  0.60908614  0.47107856  0.27317925     1.51500
O549        O  0.62716567  0.49830566  0.24986879    -1.41800
C550        C  0.65598485  0.47970334  0.30458789     1.09800
C551        C  0.66559921  0.51418120  0.20101232     1.09900
C552        C  0.65937844  0.55632266  0.24219682     1.09800
C553        C  0.65416412  0.43830860  0.26145702     1.09800
C554        C  0.76922322  0.24119203  0.26951082     0.02600
C555        C  0.76308143  0.22516251  0.24846836     0.02600
C556        C  0.74153084  0.23099592  0.23301255     0.02600
C557        C  0.72480945  0.25113262  0.24001134     0.02600
C558        C  0.73113667  0.26730387  0.26076857     0.02600
C559        C  0.75267246  0.26159979  0.27614492     0.02600
C560        C  0.77393964  0.74779793  0.73738025     0.02600
C561        C  0.76918966  0.73239328  0.75921498     0.02600
C562        C  0.74784431  0.73762879  0.77513972     0.02600
C563        C  0.72993516  0.75662940  0.76781604     0.02600
C564        C  0.73460644  0.77198404  0.74592208     0.02600
C565        C  0.75585687  0.76659609  0.72999188     0.02600
O566        O  0.16990885  0.99647550  0.78132196    -0.79800
O567        O  0.16476200  0.99725304  0.71068027    -0.79900
O568        O  0.12942653  0.93925656  0.76535451    -0.79900
O569        O  0.13189995  0.05763865  0.73364399    -0.79800
O570        O  0.16182702  0.95491506  0.74463889    -0.79900
O571        O  0.16506485  0.03789926  0.74873172    -0.79900
O572        O  0.13416827  0.02349679  0.69795528    -0.79800
O573        O  0.14087850  0.97254562  0.80039618    -0.79900
C574        C  0.16397664  0.97935829  0.79711126     1.09800
C575        C  0.15688008  0.01500803  0.69621686     1.09700
C576        C  0.15190901  0.93661477  0.75691235     1.09900
C577        C  0.15546403  0.05773434  0.73896818     1.09700
O578        O  0.11791852  0.05066911  0.77612274    -0.79800
O579        O  0.10952697  0.94724965  0.72532819    -0.79900
O580        O  0.09132776  0.99883560  0.79240548    -0.79900
O581        O  0.08501598  0.00208063  0.71220720    -0.79800
O582        O  0.11535848  0.98290421  0.69122039    -0.79900
O583        O  0.12554538  0.01433361  0.80945492    -0.79900
O584        O  0.08565871  0.03482908  0.75437063    -0.79800
O585        O  0.08300983  0.96591207  0.75245508    -0.79900
Co586      Co  0.14410095  0.02260266  0.77625427     1.51500
Co587      Co  0.13801908  0.97285474  0.72087894     1.51700
Co588      Co  0.11139290  0.97179535  0.77557826     1.51600
Co589      Co  0.10952215  0.02670559  0.72679334     1.51500
O590        O  0.12608330  0.99841175  0.74975397    -1.41800
C591        C  0.09448539  0.05104326  0.76977401     1.09800
C592        C  0.08725404  0.95025095  0.73468808     1.09900
C593        C  0.10207053  0.00896405  0.81127396     1.09800
C594        C  0.09271569  0.99136279  0.69200527     1.09800
O595        O  0.74369051  0.41431479  0.53733076    -0.79800
O596        O  0.74657431  0.41572115  0.46958231    -0.79900
O597        O  0.80744803  0.38237476  0.52177175    -0.79900
O598        O  0.69013958  0.37106218  0.48601569    -0.79800
O599        O  0.78831029  0.41425197  0.50333418    -0.79900
O600        O  0.70418930  0.40545074  0.50389995    -0.79900
O601        O  0.72426183  0.38436771  0.45199066    -0.79800
O602        O  0.77144095  0.38800449  0.55553733    -0.79900
C603        C  0.76122414  0.41004844  0.55321349     1.09800
C604        C  0.72920880  0.40802934  0.45472108     1.09700
C605        C  0.80764130  0.40544415  0.51478591     1.09900
C606        C  0.68624837  0.39382135  0.49309923     1.09700
O607        O  0.69955271  0.35402274  0.52706442    -0.79800
O608        O  0.80234764  0.36573857  0.47964240    -0.79900
O609        O  0.75290909  0.33562546  0.54481598    -0.79900
O610        O  0.75325112  0.33689568  0.46111069    -0.79800
O611        O  0.76742405  0.37179755  0.44419147    -0.79900
O612        O  0.73219261  0.36680743  0.56239518    -0.79900
O613        O  0.72053169  0.32764707  0.50137270    -0.79800
O614        O  0.78748392  0.33450378  0.50402204    -0.79900
Co615      Co  0.72214097  0.38514433  0.52998507     1.51500
Co616      Co  0.77381285  0.39127159  0.47689887     1.51700
Co617      Co  0.77706334  0.36012198  0.52924223     1.51600
Co618      Co  0.72469266  0.35553026  0.47737076     1.51500
O619        O  0.74950535  0.37313926  0.50334046    -1.41800
C620        C  0.70430021  0.33161617  0.51868490     1.09800
C621        C  0.80345764  0.34284952  0.48794946     1.09900
C622        C  0.74109057  0.34444020  0.56385307     1.09800
C623        C  0.76281217  0.34822216  0.44218150     1.09800
C624        C  0.01740576  0.52041945  0.49103524     0.02600
C625        C  0.00312186  0.52583595  0.51326721     0.02600
C626        C  0.98186402  0.51034298  0.51959163     0.02600
C627        C  0.97404741  0.49043569  0.50295811     0.02600
C628        C  0.98889634  0.48473914  0.48111233     0.02600
C629        C  0.00953948  0.50072740  0.47446307     0.02600
O630        O  0.80249025  0.63378860  0.02463224    -0.79800
O631        O  0.69620196  0.63363175  0.98052565    -0.79900
O632        O  0.74868915  0.66420615  0.96291532    -0.79900
O633        O  0.74877789  0.65935277  0.04483671    -0.79800
O634        O  0.73000347  0.63193796  0.94449699    -0.79900
O635        O  0.76909855  0.62634612  0.05996045    -0.79900
O636        O  0.71308407  0.66329322  0.00507894    -0.79800
O637        O  0.78424810  0.66552570  0.00369601    -0.79900
C638        C  0.80146553  0.65721152  0.01841308     1.09800
C639        C  0.69594709  0.65608737  0.98983819     1.09700
C640        C  0.73677767  0.65515913  0.94395061     1.09900
C641        C  0.76146422  0.64921749  0.06270118     1.09700
O642        O  0.75122467  0.57996790  0.03416853    -0.79800
O643        O  0.75091470  0.58409656  0.96372820    -0.79900
O644        O  0.80752853  0.61998640  0.98183060    -0.79900
O645        O  0.69268512  0.61410126  0.02106365    -0.79800
O646        O  0.71150332  0.58353197  0.99997623    -0.79900
O647        O  0.79101614  0.58600308  0.99927347    -0.79900
O648        O  0.72816520  0.60837245  0.05499948    -0.79800
O649        O  0.77242833  0.61637770  0.94751803    -0.79900
Co650      Co  0.77599864  0.60682226  0.02698780     1.51500
Co651      Co  0.72452770  0.60845859  0.97475774     1.51700
Co652      Co  0.77558442  0.64114807  0.97651234     1.51600
Co653      Co  0.72326031  0.63634002  0.02902032     1.51500
O654        O  0.74985809  0.62341624  0.00175680    -1.41800
C655        C  0.73626322  0.58563735  0.05211994     1.09800
C656        C  0.76588511  0.59300894  0.94706059     1.09900
C657        C  0.80936875  0.59658991  0.98775854     1.09800
C658        C  0.69254569  0.59140873  0.01264288     1.09800
C659        C  0.51632351  0.49102140  0.02319783     0.02600
C660        C  0.52389679  0.51208591  0.00811098     0.02600
C661        C  0.50963820  0.51877986  0.98616192     0.02600
C662        C  0.48970790  0.50280066  0.97758315     0.02600
C663        C  0.48198683  0.48181019  0.99276482     0.02600
C664        C  0.49584567  0.47539809  0.01513558     0.02600
O665        O  0.78676744  0.16528833  0.00472035    -0.79800
O666        O  0.71674213  0.16360935  0.00902256    -0.79900
O667        O  0.76547961  0.13204334  0.94416887    -0.79900
O668        O  0.73973792  0.12267575  0.06341570    -0.79800
O669        O  0.74809071  0.16318059  0.96544970    -0.79900
O670        O  0.75543103  0.15740894  0.04721816    -0.79900
O671        O  0.70237380  0.13148451  0.03225767    -0.79800
O672        O  0.80267651  0.13805960  0.97646816    -0.79900
C673        C  0.80110401  0.16042732  0.98591020     1.09800
C674        C  0.70141274  0.15483388  0.02548367     1.09700
C675        C  0.75774587  0.15492566  0.94495916     1.09900
C676        C  0.74490847  0.14612994  0.06573469     1.09700
O677        O  0.78081778  0.10693555  0.05251619    -0.79800
O678        O  0.72514658  0.11362059  0.95288471    -0.79900
O679        O  0.79475651  0.08638502  0.99691898    -0.79900
O680        O  0.71183329  0.08380621  0.00482005    -0.79800
O681        O  0.69301921  0.11777014  0.99013711    -0.79900
O682        O  0.81293378  0.11816739  0.01622122    -0.79900
O683        O  0.75553445  0.07844485  0.03433879    -0.79800
O684        O  0.75175606  0.08338810  0.96583828    -0.79900
Co685      Co  0.78108507  0.13679945  0.02813632     1.51500
Co686      Co  0.72374681  0.13925474  0.98143989     1.51700
Co687      Co  0.77660649  0.10997831  0.97373543     1.51600
Co688      Co  0.72960965  0.10467204  0.03087645     1.51500
O689        O  0.75276569  0.12268919  0.00349783    -1.41800
C690        C  0.77363900  0.08393366  0.04910456     1.09800
C691        C  0.73283559  0.09052103  0.95271391     1.09900
C692        C  0.81424915  0.09568708  0.00743663     1.09800
C693        C  0.69215925  0.09428919  0.99566589     1.09800
O694        O  0.37192140  0.51899084  0.69449385    -0.79800
O695        O  0.36926092  0.47968576  0.80377243    -0.79900
O696        O  0.34201671  0.45871327  0.75006476    -0.79900
O697        O  0.34330512  0.53952168  0.74671798    -0.79800
O698        O  0.37370287  0.44227826  0.77139518    -0.79900
O699        O  0.37598832  0.55598147  0.72717461    -0.79900
O700        O  0.33948685  0.50208841  0.78427188    -0.79800
O701        O  0.34063201  0.49705130  0.71210542    -0.79900
C702        C  0.34879705  0.51170108  0.69471642     1.09800
C703        C  0.34649034  0.48786801  0.80239767     1.09700
C704        C  0.35096898  0.44047281  0.76313670     1.09900
C705        C  0.35289757  0.55772126  0.73425158     1.09700
O706        O  0.42274103  0.53355086  0.74818279    -0.79800
O707        O  0.42166285  0.46414804  0.75233411    -0.79900
O708        O  0.38845475  0.47664197  0.69273778    -0.79900
O709        O  0.38663138  0.52150695  0.80629180    -0.79800
O710        O  0.41891399  0.50056577  0.79057023    -0.79900
O711        O  0.42043409  0.49685223  0.70982954    -0.79900
O712        O  0.39254539  0.55403099  0.76912584    -0.79800
O713        O  0.39209717  0.44425809  0.73009471    -0.79900
Co714      Co  0.39742649  0.52391554  0.72248548     1.51500
Co715      Co  0.39567141  0.47403437  0.77693822     1.51700
Co716      Co  0.36596973  0.47179147  0.72383983     1.51600
Co717      Co  0.36569062  0.52678658  0.77413609     1.51500
O718        O  0.38097987  0.49911344  0.74934357    -1.41800
C719        C  0.41575368  0.55174247  0.76229762     1.09800
C720        C  0.41503153  0.44649308  0.73757039     1.09900
C721        C  0.41142057  0.48402209  0.69156903     1.09800
C722        C  0.40945318  0.51374032  0.80844081     1.09800
O723        O  0.76838880  0.88400782  0.44774938    -0.79800
O724        O  0.72572550  0.88485927  0.55684257    -0.79900
O725        O  0.70816434  0.91542715  0.50200587    -0.79900
O726        O  0.78637894  0.91485843  0.50224596    -0.79800
O727        O  0.69051243  0.88384799  0.52294974    -0.79900
O728        O  0.80379585  0.88279152  0.48181097    -0.79900
O729        O  0.74707360  0.91622431  0.53902339    -0.79800
O730        O  0.74706997  0.91594429  0.46470955    -0.79900
C731        C  0.76121175  0.90712347  0.44727124     1.09800
C732        C  0.73284646  0.90796990  0.55661139     1.09700
C733        C  0.68990963  0.90690744  0.51534951     1.09900
C734        C  0.80478402  0.90586242  0.48935946     1.09700
O735        O  0.78350979  0.83468996  0.50257089    -0.79800
O736        O  0.71044142  0.83536323  0.50241581    -0.79900
O737        O  0.72629737  0.86772997  0.44555669    -0.79900
O738        O  0.76741526  0.86789625  0.55897482    -0.79800
O739        O  0.74669594  0.83605097  0.54173622    -0.79900
O740        O  0.74688201  0.83588175  0.46321394    -0.79900
O741        O  0.80132469  0.86614545  0.52367040    -0.79800
O742        O  0.69237881  0.86677192  0.48126929    -0.79900
Co743      Co  0.77313819  0.85956633  0.47640870     1.51500
Co744      Co  0.72082760  0.86017481  0.52841055     1.51700
Co745      Co  0.72101644  0.89129009  0.47594662     1.51600
Co746      Co  0.77298699  0.89114358  0.52844607     1.51500
O747        O  0.74700679  0.87561603  0.50227363    -1.41800
C748        C  0.80112921  0.84297886  0.51663270     1.09800
C749        C  0.69284721  0.84358492  0.48826232     1.09900
C750        C  0.73394358  0.84469110  0.44476191     1.09800
C751        C  0.75996548  0.84483971  0.55987089     1.09800
O752        O  0.08134028  0.53857724  0.24758782    -0.79800
O753        O  0.08028451  0.46689744  0.25162015    -0.79900
O754        O  0.11405424  0.51954088  0.19146425    -0.79900
O755        O  0.11342424  0.48418102  0.30674811    -0.79800
O756        O  0.08214462  0.50100144  0.21082884    -0.79900
O757        O  0.08178963  0.50459371  0.28866789    -0.79900
O758        O  0.11077307  0.44821261  0.27339235    -0.79800
O759        O  0.11257851  0.55543138  0.22530489    -0.79900
C760        C  0.08951690  0.55551993  0.23265508     1.09800
C761        C  0.08765410  0.44927162  0.26617777     1.09700
C762        C  0.09085867  0.51247291  0.19146125     1.09900
C763        C  0.09052679  0.49191693  0.30726148     1.09700
O764        O  0.13048173  0.52599625  0.30317893    -0.79800
O765        O  0.13029344  0.47766736  0.19651105    -0.79900
O766        O  0.16098269  0.54059227  0.24772760    -0.79900
O767        O  0.16005681  0.46262252  0.25127449    -0.79800
O768        O  0.12811514  0.44403660  0.23219968    -0.79900
O769        O  0.12930136  0.55988955  0.26693821    -0.79900
O770        O  0.16141887  0.50288966  0.28660509    -0.79800
O771        O  0.16202129  0.49986427  0.21242417    -0.79900
Co772      Co  0.10594977  0.52970652  0.27423240     1.51500
Co773      Co  0.10539144  0.47494626  0.22511608     1.51700
Co774      Co  0.13724197  0.52650329  0.22188240     1.51600
Co775      Co  0.13635463  0.47678647  0.27687133     1.51500
O776        O  0.12141180  0.50204257  0.24957156    -1.41800
C777        C  0.15320189  0.51760394  0.30387216     1.09800
C778        C  0.15349025  0.48448323  0.19599348     1.09900
C779        C  0.15238886  0.55993011  0.25946742     1.09800
C780        C  0.15123095  0.44354350  0.23954963     1.09800
C781        C  0.48643398  0.49495419  0.52050048     0.02600
C782        C  0.47954979  0.51566952  0.50439339     0.02600
C783        C  0.49432461  0.52108900  0.48230412     0.02600
C784        C  0.51497815  0.50488766  0.47558947     0.02600
C785        C  0.52173162  0.48409641  0.49154466     0.02600
C786        C  0.50661932  0.47827781  0.51326113     0.02600
C787        C  0.98482637  0.49394900  0.97644120     0.02600
C788        C  0.00506341  0.47754832  0.98396863     0.02600
C789        C  0.01981663  0.48361689  0.00588801     0.02600
C790        C  0.01336525  0.50513346  0.02111873     0.02600
C791        C  0.99287824  0.52117117  0.01370326     0.02600
C792        C  0.97767792  0.51460136  0.99240510     0.02600
C793        C  0.05347738  0.51989583  0.08147687     0.16200
C794        C  0.07223690  0.52693291  0.09927666    -0.32800
C795        C  0.06820710  0.52061686  0.12509631     0.20600
C796        C  0.04628074  0.50816986  0.13292044     0.02800
C797        C  0.02743908  0.50129823  0.11516196    -0.22500
C798        C  0.03165776  0.50725312  0.08930632     0.12000
S799        S  0.05516822  0.52491761  0.04913741    -0.06200
C800        C  0.02636153  0.50948039  0.04607132    -0.09600
C801        C  0.01607329  0.50125163  0.06909064    -0.26300
S802        S  0.04561790  0.50104571  0.16485487    -0.03500
C803        C  0.07539905  0.51463681  0.16779526    -0.16900
C804        C  0.08489264  0.52446465  0.14499796    -0.14900
H805        H  0.08950207  0.53644392  0.09318176     0.20500
H806        H  0.01047491  0.49120185  0.12116345     0.16500
H807        H  0.99815610  0.49119560  0.07085564     0.19000
H808        H  0.10354781  0.53299614  0.14285412     0.12400
C809        C  0.46618035  0.50144560  0.59101464     0.16200
C810        C  0.46282716  0.50943786  0.61637181    -0.32800
C811        C  0.44841832  0.49385051  0.63268890     0.20600
C812        C  0.43769821  0.47131374  0.62407101     0.02800
C813        C  0.44139954  0.46309271  0.59875137    -0.22500
C814        C  0.45584608  0.47871492  0.58239730     0.12000
S815        S  0.48264397  0.51801473  0.56835085    -0.06200
C816        C  0.47584688  0.49407748  0.54690036    -0.09600
C817        C  0.46137555  0.47431423  0.55701114    -0.26300
S818        S  0.41889887  0.45639645  0.64622318    -0.03500
C819        C  0.42574214  0.48061760  0.66743344    -0.16900
C820        C  0.44196807  0.49907837  0.65762620    -0.14900
H821        H  0.47080095  0.52727166  0.62299616     0.20500
H822        H  0.43295451  0.44554581  0.59196367     0.16500
H823        H  0.45545478  0.45762312  0.54643653     0.19000
H824        H  0.44735623  0.51630795  0.66762478     0.12400
C825        C  0.47273024  0.50281204  0.90571174     0.16200
C826        C  0.47147892  0.49814908  0.87926666    -0.32800
C827        C  0.45109935  0.50892782  0.86550300     0.20600
C828        C  0.43300788  0.52398539  0.87759587     0.02800
C829        C  0.43440565  0.52886576  0.90398811    -0.22500
C830        C  0.45455549  0.51778699  0.91781548     0.12000
S831        S  0.49525798  0.49050878  0.92585925    -0.06200
C832        C  0.48003496  0.50547073  0.95093835    -0.09600
C833        C  0.45865774  0.51943185  0.94381807    -0.26300
S834        S  0.40893064  0.53399318  0.85800462    -0.03500
C835        C  0.42299363  0.51748511  0.83313133    -0.16900
C836        C  0.44557601  0.50525853  0.83996273    -0.14900
H837        H  0.48547072  0.48612300  0.86993569     0.20500
H838        H  0.42001245  0.54029762  0.91345166     0.16500
H839        H  0.44667895  0.52995843  0.95696940     0.19000
H840        H  0.45666565  0.49326925  0.82728695     0.12400
C841        C  0.87780140  0.57246268  0.97500145     0.16200
C842        C  0.90342012  0.56954503  0.96742559    -0.32800
C843        C  0.91803342  0.55052449  0.97951477     0.20600
C844        C  0.90751149  0.53529536  0.99843031     0.02800
C845        C  0.88194285  0.53812278  0.00587429    -0.22500
C846        C  0.86730563  0.55692393  0.99364742     0.12000
S847        S  0.85720364  0.59510339  0.96359502    -0.06200
C848        C  0.83405441  0.58331263  0.98387485    -0.09600
C849        C  0.84220441  0.56288132  0.99865965    -0.26300
S850        S  0.92823899  0.51382298  0.01138766    -0.03500
C851        C  0.95139761  0.52512712  0.99104031    -0.16900
C852        C  0.94335635  0.54470878  0.97507934    -0.14900
H853        H  0.91164887  0.58172307  0.95291253     0.20500
H854        H  0.87384343  0.52624879  0.02071710     0.16500
H855        H  0.83073806  0.55361857  0.01313506     0.19000
H856        H  0.95540597  0.55428867  0.96131863     0.12400
C857        C  0.63494735  0.54567100  0.01117051     0.16200
C858        C  0.61757725  0.52595480  0.00615013    -0.32800
C859        C  0.59167992  0.53039218  0.01156400     0.20600
C860        C  0.58341593  0.55331501  0.02186691     0.02800
C861        C  0.60081781  0.57291752  0.02714436    -0.22500
C862        C  0.62667125  0.56859321  0.02145297     0.12000
S863        S  0.66689253  0.54484579  0.00421579    -0.06200
C864        C  0.66916385  0.57577552  0.01518482    -0.09600
C865        C  0.64620005  0.58580774  0.02394903    -0.26300
S866        S  0.55105742  0.55530335  0.02602349    -0.03500
C867        C  0.54857265  0.52507812  0.01335872    -0.16900
C868        C  0.57178042  0.51412499  0.00676333    -0.14900
H869        H  0.62389112  0.50812644  0.99774333     0.20500
H870        H  0.59438927  0.59103692  0.03480619     0.16500
H871        H  0.64368926  0.60515159  0.03081743     0.19000
H872        H  0.57385320  0.49541950  0.99819836     0.12400
C873        C  0.02839730  0.50539094  0.40395139     0.16200
C874        C  0.03041191  0.51146857  0.37792545    -0.32800
C875        C  0.04938295  0.49902134  0.36366534     0.20600
C876        C  0.06553281  0.48133591  0.37494149     0.02800
C877        C  0.06349432  0.47524393  0.40089386    -0.22500
C878        C  0.04460724  0.48767069  0.41512510     0.12000
S879        S  0.00685562  0.51851086  0.42452382    -0.06200
C880        C  0.01983062  0.49988747  0.44827679    -0.09600
C881        C  0.03978708  0.48441429  0.44066657    -0.26300
S882        S  0.08819727  0.46933121  0.35505320    -0.03500
C883        C  0.07611788  0.48843516  0.33115154    -0.16900
C884        C  0.05524263  0.50307692  0.33836938    -0.14900
H885        H  0.01792812  0.52547332  0.36925705     0.20500
H886        H  0.07631534  0.46162443  0.40968427     0.16500
H887        H  0.05007587  0.47152194  0.45310954     0.19000
H888        H  0.04585001  0.51694639  0.32626701     0.12400
C889        C  0.59174563  0.46190433  0.49496621     0.16200
C890        C  0.61774627  0.45936899  0.50070394    -0.32800
C891        C  0.62992827  0.43640323  0.49421836     0.20600
C892        C  0.61680144  0.41675022  0.48247659     0.02800
C893        C  0.59072610  0.41933809  0.47658029    -0.22500
C894        C  0.57849654  0.44238829  0.48310789     0.12000
S895        S  0.57356379  0.48792714  0.50233753    -0.06200
C896        C  0.54767202  0.47259765  0.48934196    -0.09600
C897        C  0.55311104  0.44848287  0.47967061    -0.26300
S898        S  0.63510238  0.39021687  0.47674497    -0.03500
C899        C  0.66074873  0.40583978  0.49019186    -0.16900
C900        C  0.65504989  0.43029865  0.49865069    -0.14900
H901        H  0.62800172  0.47459371  0.51010760     0.20500
H902        H  0.58037159  0.40396153  0.46754782     0.16500
H903        H  0.53918292  0.43591123  0.47116670     0.19000
H904        H  0.66855655  0.44292275  0.50777191     0.12400
C905        C  0.87485107  0.43321468  0.52627034     0.16200
C906        C  0.90050178  0.43702882  0.53326597    -0.32800
C907        C  0.91473412  0.45517313  0.51950333     0.20600
C908        C  0.90372144  0.46891378  0.49975535     0.02800
C909        C  0.87801706  0.46541989  0.49309579    -0.22500
C910        C  0.86383319  0.44726433  0.50676027     0.12000
S911        S  0.85504103  0.41066616  0.53904020    -0.06200
C912        C  0.83152280  0.42029384  0.51801810    -0.09600
C913        C  0.83892483  0.44018903  0.50214926    -0.26300
S914        S  0.92414949  0.48923424  0.48461412    -0.03500
C915        C  0.94793263  0.47937869  0.50503462    -0.16900
C916        C  0.94017084  0.46124029  0.52279036    -0.14900
H917        H  0.90913997  0.42590863  0.54838377     0.20500
H918        H  0.86957176  0.47606065  0.47752960     0.16500
H919        H  0.82722641  0.44807109  0.48706727     0.19000
H920        H  0.95248878  0.45283272  0.53706836     0.12400
C921        C  0.74817376  0.78544424  0.65903589     0.16200
C922        C  0.74016241  0.78809853  0.63354892    -0.32800
C923        C  0.75381972  0.80487224  0.61767563     0.20600
C924        C  0.77458176  0.81830822  0.62686522     0.02800
C925        C  0.78280760  0.81536809  0.65223851    -0.22500
C926        C  0.76909033  0.79871070  0.66813655     0.12000
S927        S  0.73364863  0.76674665  0.68145415    -0.06200
C928        C  0.75601241  0.77671658  0.70337173    -0.09600
C929        C  0.77374869  0.79374019  0.69357286    -0.26300
S930        S  0.78727136  0.83932076  0.60540471    -0.03500
C931        C  0.76441525  0.83009133  0.58365074    -0.16900
C932        C  0.74808439  0.81129384  0.59277001    -0.14900
H933        H  0.72366970  0.77791115  0.62654611     0.20500
H934        H  0.79887854  0.82607200  0.65944150     0.16500
H935        H  0.78907563  0.80213263  0.70447904     0.19000
H936        H  0.73186831  0.80396407  0.58236649     0.12400
C937        C  0.75215664  0.71680949  0.84606124     0.16200
C938        C  0.75843747  0.71409670  0.87205935    -0.32800
C939        C  0.74497102  0.69598062  0.88659940     0.20600
C940        C  0.72609130  0.68120715  0.87560287     0.02800
C941        C  0.71956097  0.68415987  0.84967220    -0.22500
C942        C  0.73302916  0.70228664  0.83513425     0.12000
S943        S  0.76673087  0.73726128  0.82519254    -0.06200
C944        C  0.74680088  0.72642909  0.80141368    -0.09600
C945        C  0.72974820  0.70781211  0.80951586    -0.26300
S946        S  0.71336107  0.65898847  0.89587910    -0.03500
C947        C  0.73350456  0.66965936  0.91966789    -0.16900
C948        C  0.74912441  0.68966094  0.91190889    -0.14900
H949        H  0.77347262  0.72538638  0.88050331     0.20500
H950        H  0.70489466  0.67249645  0.84109054     0.16500
H951        H  0.71575548  0.69884478  0.79733095     0.19000
H952        H  0.76376966  0.69813287  0.92368221     0.12400
C953        C  0.74400417  0.21272606  0.16153551     0.16200
C954        C  0.74907523  0.21160742  0.13516371    -0.32800
C955        C  0.74273381  0.18909600  0.12205048     0.20600
C956        C  0.73142557  0.16881303  0.13467402     0.02800
C957        C  0.72601717  0.17007613  0.16096159    -0.22500
C958        C  0.73275189  0.19240174  0.17415138     0.12000
S959        S  0.75168937  0.23767396  0.18103051    -0.06200
C960        C  0.73995350  0.22054471  0.20656642    -0.09600
C961        C  0.73018381  0.19683545  0.20000543    -0.26300
S962        S  0.72642106  0.14271551  0.11582997    -0.03500
C963        C  0.74001051  0.15897213  0.09058085    -0.16900
C964        C  0.74757374  0.18364771  0.09668925    -0.14900
H965        H  0.75819531  0.22736468  0.12542866     0.20500
H966        H  0.71754254  0.15405079  0.17084235     0.16500
H967        H  0.72198036  0.18345725  0.21340705     0.19000
H968        H  0.75693103  0.19655994  0.08356685     0.12400
C969        C  0.77107252  0.32482982  0.37262504     0.16200
C970        C  0.77569476  0.32254800  0.34621807    -0.32800
C971        C  0.76549571  0.30127433  0.33344393     0.20600
C972        C  0.75132516  0.28316614  0.34649930     0.02800
C973        C  0.74686477  0.28537252  0.37283979    -0.22500
C974        C  0.75708520  0.30654201  0.38559079     0.12000
S975        S  0.78063187  0.34974142  0.39143686    -0.06200
C976        C  0.76574435  0.33533275  0.41710642    -0.09600
C977        C  0.75414596  0.31232704  0.41107098    -0.26300
S978        S  0.74014175  0.25902341  0.32779247    -0.03500
C979        C  0.75469305  0.27322828  0.30199467    -0.16900
C980        C  0.76757376  0.29562860  0.30777105    -0.14900
H981        H  0.78652264  0.33687659  0.33603347     0.20500
H982        H  0.73568025  0.27125880  0.38294283     0.16500
H983        H  0.74322830  0.30092781  0.42439532     0.19000
H984        H  0.77775610  0.30712764  0.29397020     0.12400
C985        C  0.68643537  0.43967898  0.40716969     0.16200
C986        C  0.66733070  0.44264418  0.38910070    -0.32800
C987        C  0.67368230  0.45537902  0.36669213     0.20600
C988        C  0.69764755  0.46566701  0.36257144     0.02800
C989        C  0.71671288  0.46330934  0.38111912    -0.22500
C990        C  0.71057800  0.44978190  0.40340278     0.12000
S991        S  0.68352230  0.42053044  0.43292762    -0.06200
C992        C  0.71520226  0.42580716  0.43879183    -0.09600
C993        C  0.72720733  0.44226830  0.42204005    -0.26300
S994        S  0.70118958  0.48000024  0.33345566    -0.03500
C995        C  0.67015755  0.47157601  0.32708821    -0.16900
C996        C  0.65799423  0.45854107  0.34647299    -0.14900
H997        H  0.64871928  0.43415756  0.39177586     0.20500
H998        H  0.73570248  0.47063640  0.37785355     0.16500
H999        H  0.74747651  0.44607016  0.42181784     0.19000
H1000       H  0.63839981  0.45209199  0.34603519     0.12400
C1001       C  0.71365581  0.53755559  0.10087981     0.16200
C1002       C  0.69898732  0.52008035  0.11461788    -0.32800
C1003       C  0.69824829  0.52288586  0.14118558     0.20600
C1004       C  0.71235616  0.54140998  0.15371591     0.02800
C1005       C  0.72761180  0.55832221  0.14005898    -0.22500
C1006       C  0.72739296  0.55629939  0.11348960     0.12000
S1007       S  0.71362213  0.54037038  0.06838407    -0.06200
C1008       C  0.73146293  0.56745812  0.07231727    -0.09600
C1009       C  0.73773189  0.57343918  0.09710847    -0.26300
S1010       S  0.70646304  0.54382963  0.18562164    -0.03500
C1011       C  0.68441640  0.52012743  0.18174493    -0.16900
C1012       C  0.68217304  0.51050412  0.15734695    -0.14900
H1013       H  0.68725050  0.50615328  0.10496179     0.20500
H1014       H  0.73770015  0.57358073  0.14957938     0.16500
H1015       H  0.74795067  0.59041727  0.10287574     0.19000
H1016       H  0.66821354  0.49649432  0.15149395     0.12400
C1017       C  0.57849561  0.47682352  0.12045764     0.16200
C1018       C  0.57639405  0.47096549  0.09436443    -0.32800
C1019       C  0.55444975  0.47927576  0.08144409     0.20600
C1020       C  0.53535027  0.49254321  0.09411993     0.02800
C1021       C  0.53719255  0.49786202  0.12030711    -0.22500
C1022       C  0.55926653  0.48988094  0.13313604     0.12000
S1023       S  0.60449189  0.47038575  0.13893962    -0.06200
C1024       C  0.58937316  0.48545678  0.16409755    -0.09600
C1025       C  0.56529323  0.49472561  0.15823376    -0.26300
S1026       S  0.51109636  0.50257080  0.07491107    -0.03500
C1027       C  0.52654299  0.48847708  0.04951988    -0.16900
C1028       C  0.54943823  0.47675022  0.05575922    -0.14900
H1029       H  0.59156032  0.46105278  0.08440386     0.20500
H1030       H  0.52239498  0.50849115  0.13008416     0.16500
H1031       H  0.55319246  0.50514343  0.17136829     0.19000
H1032       H  0.56195655  0.46748649  0.04216742     0.12400
C1033       C  0.55366746  0.52016659  0.41462256     0.16200
C1034       C  0.57122012  0.52872609  0.39624603    -0.32800
C1035       C  0.56858016  0.51971156  0.37110330     0.20600
C1036       C  0.54899729  0.50336025  0.36439685     0.02800
C1037       C  0.53139134  0.49489901  0.38272959    -0.22500
C1038       C  0.53438906  0.50342326  0.40796266     0.12000
S1039       S  0.55395193  0.52821002  0.44634692    -0.06200
C1040       C  0.52816493  0.50838427  0.45069224    -0.09600
C1041       C  0.51980567  0.49652432  0.42860473    -0.26300
S1042       S  0.54984539  0.49361099  0.33321458    -0.03500
C1043       C  0.57729435  0.51119568  0.32922050    -0.16900
C1044       C  0.58481466  0.52430533  0.35100556    -0.14900
H1045       H  0.58662646  0.54139566  0.40144122     0.20500
H1046       H  0.51637705  0.48170936  0.37767588     0.16500
H1047       H  0.50373127  0.48364296  0.42774094     0.19000
H1048       H  0.60197817  0.53564306  0.35240824     0.12400
C1049       C  0.69821767  0.37906232  0.26163369     0.16200
C1050       C  0.71801907  0.36133820  0.25788615    -0.32800
C1051       C  0.71273679  0.33540852  0.26227216     0.20600
C1052       C  0.68884416  0.32741278  0.27018134     0.02800
C1053       C  0.66908596  0.34517479  0.27409822    -0.22500
C1054       C  0.67432120  0.37111948  0.26958985     0.12000
S1055       S  0.70034628  0.41120161  0.25604333    -0.06200
C1056       C  0.66864414  0.41410678  0.26443527    -0.09600
C1057       C  0.65734731  0.39112710  0.27134997    -0.26300
S1058       S  0.68617079  0.29496714  0.27366609    -0.03500
C1059       C  0.71756663  0.29212583  0.26425277    -0.16900
C1060       C  0.72924786  0.31528832  0.25893265    -0.14900
H1061       H  0.73664110  0.36745073  0.25140940     0.20500
H1062       H  0.65030710  0.33899406  0.28001674     0.16500
H1063       H  0.63747242  0.38901545  0.27651706     0.19000
H1064       H  0.74875433  0.31720186  0.25243306     0.12400
C1065       C  0.72368841  0.81812369  0.37666683     0.16200
C1066       C  0.71744472  0.81486794  0.35067680    -0.32800
C1067       C  0.73226401  0.79772357  0.33611028     0.20600
C1068       C  0.75228685  0.78440695  0.34711616     0.02800
C1069       C  0.75818632  0.78731545  0.37311825    -0.22500
C1070       C  0.74347696  0.80444483  0.38762210     0.12000
S1071       S  0.70973650  0.83962811  0.39704367    -0.06200
C1072       C  0.73072098  0.83007022  0.42064885    -0.09600
C1073       C  0.74734412  0.81090642  0.41284785    -0.26300
S1074       S  0.76837084  0.76492283  0.32644069    -0.03500
C1075       C  0.74789365  0.77439115  0.30253044    -0.16900
C1076       C  0.72954920  0.79197707  0.31045709    -0.14900
H1077       H  0.70205653  0.82562378  0.34207120     0.20500
H1078       H  0.77391541  0.77695593  0.38159625     0.16500
H1079       H  0.76260167  0.80329209  0.42449032     0.19000
H1080       H  0.71487270  0.79979159  0.29822737     0.12400
C1081       C  0.77329556  0.67277630  0.13199870     0.16200
C1082       C  0.77953277  0.67479108  0.15811283    -0.32800
C1083       C  0.76905422  0.69521808  0.17216515     0.20600
C1084       C  0.75324542  0.71295301  0.16052313     0.02800
C1085       C  0.74719571  0.71105778  0.13439482    -0.22500
C1086       C  0.75749850  0.69053196  0.12040927     0.12000
S1087       S  0.78279215  0.64860475  0.11207928    -0.06200
C1088       C  0.76525217  0.66234229  0.08772848    -0.09600
C1089       C  0.75294175  0.68477120  0.09504049    -0.26300
S1090       S  0.74207555  0.73606567  0.18075280    -0.03500
C1091       C  0.75865761  0.72177884  0.20534768    -0.16900
C1092       C  0.77230048  0.70020279  0.19793169    -0.14900
H1093       H  0.79169242  0.66076514  0.16718574     0.20500
H1094       H  0.73465015  0.72481588  0.12543489     0.16500
H1095       H  0.74049683  0.69575714  0.08274955     0.19000
H1096       H  0.78382839  0.68877479  0.21069744     0.12400
C1097       C  0.68827040  0.62234100  0.22843546     0.16200
C1098       C  0.69313966  0.64701841  0.21905788    -0.32800
C1099       C  0.70733814  0.66370044  0.23443357     0.20600
C1100       C  0.71627116  0.65602036  0.25810571     0.02800
C1101       C  0.71168184  0.63124663  0.26735046    -0.22500
C1102       C  0.69753292  0.61454685  0.25194649     0.12000
S1103       S  0.66971571  0.60013176  0.21359188    -0.06200
C1104       C  0.67466636  0.57984580  0.23908684    -0.09600
C1105       C  0.69006491  0.59004628  0.25804193    -0.26300
S1106       S  0.73253402  0.67912926  0.27415238    -0.03500
C1107       C  0.72746369  0.69952121  0.24874035    -0.16900
C1108       C  0.71376151  0.68863056  0.22887470    -0.14900
H1109       H  0.68577162  0.65309810  0.20074532     0.20500
H1110       H  0.71855376  0.62536877  0.28592393     0.16500
H1111       H  0.69422658  0.58069548  0.27599306     0.19000
H1112       H  0.70859785  0.69842086  0.21144665     0.12400
C1113       C  0.19740622  0.03151232  0.63760412     0.16200
C1114       C  0.21458025  0.03321020  0.61704191    -0.32800
C1115       C  0.20843072  0.05033598  0.59723686     0.20600
C1116       C  0.18599035  0.06441480  0.59774553     0.02800
C1117       C  0.16910340  0.06268835  0.61800212    -0.22500
C1118       C  0.17557611  0.04640690  0.63787490     0.12000
S1119       S  0.20031329  0.01200236  0.66381218    -0.06200
C1120       C  0.17196146  0.02469052  0.67478651    -0.09600
C1121       C  0.16143294  0.04304430  0.65910631    -0.26300
S1122       S  0.18245436  0.08580949  0.57391398    -0.03500
C1123       C  0.21206151  0.07680238  0.56337809    -0.16900
C1124       C  0.22354699  0.05720077  0.57699815    -0.14900
H1125       H  0.23208913  0.02225468  0.61678138     0.20500
H1126       H  0.15195604  0.07422380  0.61864827     0.16500
H1127       H  0.14348000  0.05276020  0.66244585     0.19000
H1128       H  0.24276334  0.05030704  0.57384982     0.12400
C1129       C  0.53716720  0.35333414  0.20104512     0.16200
C1130       C  0.54296595  0.37005244  0.22107776    -0.32800
C1131       C  0.55383999  0.39363600  0.21452327     0.20600
C1132       C  0.55819646  0.40033911  0.18926358     0.02800
C1133       C  0.55182869  0.38407041  0.16943788    -0.22500
C1134       C  0.54174353  0.36045809  0.17597790     0.12000
S1135       S  0.52533182  0.32305705  0.20430712    -0.06200
C1136       C  0.52744941  0.32032912  0.17162725    -0.09600
C1137       C  0.53631937  0.34173109  0.15920073    -0.26300
S1138       S  0.57457741  0.42774177  0.18492003    -0.03500
C1139       C  0.57556432  0.43054408  0.21739977    -0.16900
C1140       C  0.56353237  0.41136324  0.23094768    -0.14900
H1141       H  0.54013058  0.36455904  0.24079195     0.20500
H1142       H  0.55580044  0.38906622  0.14976955     0.16500
H1143       H  0.53852259  0.34362313  0.13871873     0.19000
H1144       H  0.56388283  0.40939400  0.25151519     0.12400
C1145       C  0.64231650  0.19589414  0.03694878     0.16200
C1146       C  0.62272273  0.21415666  0.03757303    -0.32800
C1147       C  0.59994157  0.20728489  0.04992330     0.20600
C1148       C  0.59665959  0.18311664  0.06024773     0.02800
C1149       C  0.61589290  0.16495750  0.05923158    -0.22500
C1150       C  0.63877696  0.17215142  0.04799529     0.12000
S1151       S  0.67187009  0.19993078  0.02360047    -0.06200
C1152       C  0.67916984  0.16947743  0.03372563    -0.09600
C1153       C  0.65978256  0.15727167  0.04665901    -0.26300
S1154       S  0.56981785  0.17912024  0.07760412    -0.03500
C1155       C  0.56314031  0.21063413  0.07198337    -0.16900
C1156       C  0.58020322  0.22321577  0.05622221    -0.14900
H1157       H  0.62547245  0.23309120  0.02981234     0.20500
H1158       H  0.61360047  0.14641743  0.06806452     0.16500
H1159       H  0.66051989  0.13785390  0.05372366     0.19000
H1160       H  0.57990100  0.24352015  0.05241604     0.12400
C1161       C  0.49591126  0.36447137  0.04949286     0.16200
C1162       C  0.50145393  0.38205248  0.03006948    -0.32800
C1163       C  0.49491886  0.40773197  0.03417634     0.20600
C1164       C  0.48303221  0.41560797  0.05646664     0.02800
C1165       C  0.47749449  0.39802154  0.07592407    -0.22500
C1166       C  0.48434898  0.37236942  0.07194136     0.12000
S1167       S  0.50329056  0.33262156  0.04865368    -0.06200
C1168       C  0.49097140  0.32988716  0.07902357    -0.09600
C1169       C  0.48149380  0.35263764  0.08893149    -0.26300
S1170       S  0.47708374  0.44774545  0.05780093    -0.03500
C1171       C  0.49118594  0.45062008  0.02819930    -0.16900
C1172       C  0.49969429  0.42773021  0.01798343    -0.14900
H1173       H  0.51085438  0.37604686  0.01266137     0.20500
H1174       H  0.46859918  0.40412545  0.09356203     0.16500
H1175       H  0.47343330  0.35474882  0.10785430     0.19000
H1176       H  0.50933807  0.42595274  0.99978096     0.12400
C1177       C  0.62625966  0.26863522  0.17946736     0.16200
C1178       C  0.65170779  0.27633721  0.18330833    -0.32800
C1179       C  0.66579753  0.26419047  0.20271671     0.20600
C1180       C  0.65483802  0.24533298  0.21767324     0.02800
C1181       C  0.62929629  0.23804638  0.21418952    -0.22500
C1182       C  0.61527684  0.25007093  0.19474513     0.12000
S1183       S  0.60668655  0.27933238  0.15557347    -0.06200
C1184       C  0.58335057  0.25868381  0.16626623    -0.09600
C1185       C  0.59059561  0.24455678  0.18752988    -0.26300
S1186       S  0.67517151  0.23198827  0.23937933    -0.03500
C1187       C  0.69877618  0.25209605  0.22856392    -0.16900
C1188       C  0.69107399  0.26830174  0.20898688    -0.14900
H1189       H  0.66033310  0.29072440  0.17126889     0.20500
H1190       H  0.62087596  0.22318554  0.22579626     0.16500
H1191       H  0.57891276  0.23005323  0.19642949     0.19000
H1192       H  0.70333749  0.28207655  0.19973681     0.12400
C1193       C  0.59725856  0.02723107  0.00370616     0.16200
C1194       C  0.62357931  0.02914566  0.00860787    -0.32800
C1195       C  0.63640240  0.05100790  0.99980572     0.20600
C1196       C  0.62343158  0.07001159  0.98673641     0.02800
C1197       C  0.59726977  0.06792647  0.98153640    -0.22500
C1198       C  0.58447631  0.04615135  0.99031766     0.12000
S1199       S  0.57803851  0.00288255  0.01370480    -0.06200
C1200       C  0.55261754  0.01814668  0.99938007    -0.09600
C1201       C  0.55886415  0.04102244  0.98768928    -0.26300
S1202       S  0.64171420  0.09569052  0.97893336    -0.03500
C1203       C  0.66745563  0.08078797  0.99306978    -0.16900
C1204       C  0.66180349  0.05698481  0.00336343    -0.14900
H1205       H  0.63352353  0.01443153  0.01917586     0.20500
H1206       H  0.58721396  0.08289361  0.97143843     0.16500
H1207       H  0.54534724  0.05334567  0.97809443     0.19000
H1208       H  0.67527218  0.04511700  0.01358478     0.12400
C1209       C  0.51944710  0.07585341  0.06255627     0.16200
C1210       C  0.52261519  0.09367841  0.08234508    -0.32800
C1211       C  0.51552784  0.11917514  0.07763939     0.20600
C1212       C  0.50606062  0.12670044  0.05413837     0.02800
C1213       C  0.50311942  0.10893260  0.03427447    -0.22500
C1214       C  0.50983004  0.08337819  0.03911302     0.12000
S1215       S  0.52533132  0.04371625  0.06490833    -0.06200
C1216       C  0.51426620  0.04029653  0.03413463    -0.09600
C1217       C  0.50693739  0.06309564  0.02275137    -0.26300
S1218       S  0.49770655  0.15831662  0.05259985    -0.03500
C1219       C  0.50681953  0.16150928  0.08406537    -0.16900
C1220       C  0.51606410  0.13903591  0.09481892    -0.14900
H1221       H  0.52972605  0.08780808  0.10082721     0.20500
H1222       H  0.49534744  0.11466323  0.01601489     0.16500
H1223       H  0.49902669  0.06456292  0.00373364     0.19000
H1224       H  0.52239134  0.13719624  0.11439058     0.12400
C1225       C  0.70125212  0.03720367  0.85754682     0.16200
C1226       C  0.72116747  0.03961771  0.87526601    -0.32800
C1227       C  0.71541070  0.05156312  0.89862534     0.20600
C1228       C  0.69089484  0.05994786  0.90411073     0.02800
C1229       C  0.67123456  0.05732373  0.88672193    -0.22500
C1230       C  0.67713057  0.04633052  0.86336026     0.12000
S1231       S  0.70344649  0.02365136  0.82784544    -0.06200
C1232       C  0.67169476  0.03112703  0.82365734    -0.09600
C1233       C  0.66042485  0.04334389  0.84405443    -0.26300
S1234       S  0.68770352  0.07657608  0.93145118    -0.03500
C1235       C  0.71985202  0.07307163  0.93565605    -0.16900
C1236       C  0.73231212  0.05878006  0.91717846    -0.14900
H1237       H  0.74030024  0.03327473  0.87077162     0.20500
H1238       H  0.65230897  0.06456189  0.89081870     0.16500
H1239       H  0.64053780  0.04885799  0.84521969     0.19000
H1240       H  0.75276484  0.05625527  0.91598304     0.12400
C1241       C  0.69774327  0.94194767  0.65939881     0.16200
C1242       C  0.70583545  0.92201716  0.64400961    -0.32800
C1243       C  0.71479097  0.92826193  0.61983661     0.20600
C1244       C  0.71670852  0.95323709  0.61133622     0.02800
C1245       C  0.70945434  0.97346373  0.62725995    -0.22500
C1246       C  0.69961794  0.96712534  0.65137741     0.12000
S1247       S  0.68156722  0.93743178  0.68696409    -0.06200
C1248       C  0.67731658  0.96974208  0.68797869    -0.09600
C1249       C  0.68823422  0.98341296  0.66823061    -0.26300
S1250       S  0.72633949  0.95601196  0.58019589    -0.03500
C1251       C  0.72688791  0.92321250  0.57903733    -0.16900
C1252       C  0.72067802  0.91112852  0.60155991    -0.14900
H1253       H  0.70362004  0.90235281  0.64994841     0.20500
H1254       H  0.71004445  0.99301809  0.62065626     0.16500
H1255       H  0.68573663  0.00369002  0.66513110     0.19000
H1256       H  0.71993129  0.89065004  0.60430685     0.12400
C1257       C  0.69776739  0.88279559  0.74669543     0.16200
C1258       C  0.71818658  0.86565449  0.74994531    -0.32800
C1259       C  0.71397329  0.83968492  0.74459090     0.20600
C1260       C  0.69056483  0.83112898  0.73597887     0.02800
C1261       C  0.67026025  0.84836610  0.73223744    -0.22500
C1262       C  0.67436616  0.87431229  0.73798989     0.12000
S1263       S  0.69847362  0.91473436  0.75392538    -0.06200
C1264       C  0.66681578  0.91685330  0.74526869    -0.09600
C1265       C  0.65663733  0.89375610  0.73697373    -0.26300
S1266       S  0.68907452  0.79862631  0.73191824    -0.03500
C1267       C  0.72025993  0.79647989  0.74221810    -0.16900
C1268       C  0.73105449  0.81998124  0.74795117    -0.14900
H1269       H  0.73640825  0.87217744  0.75703806     0.20500
H1270       H  0.65183758  0.84173335  0.72579716     0.16500
H1271       H  0.63704437  0.89117775  0.73108249     0.19000
H1272       H  0.75029835  0.82240119  0.75495938     0.12400
C1273       C  0.55925754  0.98012496  0.92305145     0.16200
C1274       C  0.57867951  0.97720358  0.90482442    -0.32800
C1275       C  0.57340312  0.98442431  0.87953813     0.20600
C1276       C  0.54976885  0.99392531  0.87252418     0.02800
C1277       C  0.53025657  0.99671083  0.89074984    -0.22500
C1278       C  0.53562534  0.98971091  0.91612905     0.12000
S1279       S  0.56226718  0.97366023  0.95497437    -0.06200
C1280       C  0.53143849  0.98429578  0.95920075    -0.09600
C1281       C  0.51959895  0.99203603  0.93677407    -0.26300
S1282       S  0.54761964  0.00224254  0.84089632    -0.03500
C1283       C  0.57896362  0.99292455  0.83713427    -0.16900
C1284       C  0.59012926  0.98379368  0.85939419    -0.14900
H1285       H  0.59728089  0.97003024  0.91020858     0.20500
H1286       H  0.51183692  0.00441865  0.88547855     0.16500
H1287       H  0.50045491  0.99974124  0.93582141     0.19000
H1288       H  0.60970536  0.97737123  0.86087394     0.12400
C1289       C  0.56418149  0.65601848  0.30154428     0.16200
C1290       C  0.58306784  0.63778910  0.29831145    -0.32800
C1291       C  0.57631338  0.61521391  0.28625419     0.20600
C1292       C  0.55218711  0.61097643  0.27650296     0.02800
C1293       C  0.53311853  0.62968385  0.27926925    -0.22500
C1294       C  0.53965060  0.65215152  0.29248034     0.12000
S1295       S  0.56805744  0.68200882  0.32020775    -0.06200
C1296       C  0.53609971  0.68763485  0.31678123    -0.09600
C1297       C  0.52333051  0.67084373  0.30084955    -0.26300
S1298       S  0.54869468  0.58143325  0.26268198    -0.03500
C1299       C  0.57987519  0.57514021  0.27107836    -0.16900
C1300       C  0.59192094  0.59492447  0.28349580    -0.14900
H1301       H  0.60192409  0.64045180  0.30625631     0.20500
H1302       H  0.51388558  0.62637744  0.27262837     0.16500
H1303       H  0.50287941  0.67056485  0.29813466     0.19000
H1304       H  0.61153331  0.59473106  0.28995302     0.12400
C1305       C  0.64004201  0.79714891  0.47048312     0.16200
C1306       C  0.62522959  0.77675526  0.46174917    -0.32800
C1307       C  0.60076794  0.78256119  0.45257804     0.20600
C1308       C  0.59130449  0.80732268  0.45287700     0.02800
C1309       C  0.60562925  0.82734684  0.46243429    -0.22500
C1310       C  0.63020827  0.82173596  0.47060953     0.12000
S1311       S  0.67138138  0.79523631  0.47933420    -0.06200
C1312       C  0.67087464  0.82792020  0.48220546    -0.09600
C1313       C  0.64769682  0.83932550  0.47739122    -0.26300
S1314       S  0.56336009  0.81160812  0.43735225    -0.03500
C1315       C  0.56424150  0.77979438  0.43030650    -0.16900
C1316       C  0.58485282  0.76639594  0.43989084    -0.14900
H1317       H  0.63294118  0.75761296  0.46066055     0.20500
H1318       H  0.59859603  0.84678171  0.46181668     0.16500
H1319       H  0.64401148  0.85966699  0.47808430     0.19000
H1320       H  0.58910997  0.74661272  0.43567966     0.12400
C1321       C  0.49580013  0.63076603  0.44400336     0.16200
C1322       C  0.50041893  0.61382625  0.46419302    -0.32800
C1323       C  0.49432559  0.58804505  0.46058403     0.20600
C1324       C  0.48356123  0.57945166  0.43805656     0.02800
C1325       C  0.47891980  0.59645939  0.41776471    -0.22500
C1326       C  0.48550399  0.62227323  0.42120668     0.12000
S1327       S  0.50309804  0.66249507  0.44440396    -0.06200
C1328       C  0.49270052  0.66453261  0.41330328    -0.09600
C1329       C  0.48367041  0.64161646  0.40345820    -0.26300
S1330       S  0.47786438  0.54721938  0.43764132    -0.03500
C1331       C  0.49037582  0.54540639  0.46803534    -0.16900
C1332       C  0.49852282  0.56862824  0.47763208    -0.14900
H1333       H  0.50888315  0.62039389  0.48183343     0.20500
H1334       H  0.47096464  0.58978771  0.39993145     0.16500
H1335       H  0.47667723  0.63912842  0.38419509     0.19000
H1336       H  0.50735054  0.57107417  0.49613324     0.12400
C1337       C  0.62131445  0.74569728  0.30257509     0.16200
C1338       C  0.63913284  0.74752702  0.28262863    -0.32800
C1339       C  0.66485424  0.74252815  0.28830422     0.20600
C1340       C  0.67257122  0.73599002  0.31273236     0.02800
C1341       C  0.65474288  0.73399897  0.33262616    -0.22500
C1342       C  0.62903300  0.73897307  0.32694654     0.12000
S1343       S  0.58926953  0.75167790  0.29991488    -0.06200
C1344       C  0.58620779  0.74483402  0.33196298    -0.09600
C1345       C  0.60900859  0.73834363  0.34379341    -0.26300
S1346       S  0.70479040  0.73161673  0.31584961    -0.03500
C1347       C  0.70795622  0.73896101  0.28389987    -0.16900
C1348       C  0.68504030  0.74402910  0.27168795    -0.14900
H1349       H  0.63325238  0.75289146  0.26356510     0.20500
H1350       H  0.66068402  0.72904220  0.35178128     0.16500
H1351       H  0.61090462  0.73374547  0.36385330     0.19000
H1352       H  0.68339222  0.74935080  0.25178606     0.12400
C1353       C  0.59075030  0.96469647  0.49932364     0.16200
C1354       C  0.61613799  0.96124586  0.49144363    -0.32800
C1355       C  0.63211279  0.94609422  0.50672644     0.20600
C1356       C  0.62317172  0.93491189  0.52896540     0.02800
C1357       C  0.59785506  0.93881104  0.53715077    -0.22500
C1358       C  0.58179339  0.95385376  0.52173443     0.12000
S1359       S  0.56838146  0.98171048  0.48287259    -0.06200
C1360       C  0.54651214  0.97432984  0.50632075    -0.09600
C1361       C  0.55636551  0.95941658  0.52595725    -0.26300
S1362       S  0.64483733  0.91511720  0.54337315    -0.03500
C1363       C  0.66625322  0.92201193  0.51926265    -0.16900
C1364       C  0.65688871  0.93912491  0.50129753    -0.14900
H1365       H  0.62299184  0.96956815  0.47381195     0.20500
H1366       H  0.59079919  0.92993325  0.55442270     0.16500
H1367       H  0.54557439  0.95316773  0.54242709     0.19000
H1368       H  0.66700311  0.94472355  0.48416579     0.12400
C1369       C  0.41697375  0.05874651  0.48438711     0.16200
C1370       C  0.39941893  0.07846265  0.47934205    -0.32800
C1371       C  0.37342412  0.07382795  0.48430432     0.20600
C1372       C  0.36523325  0.05066151  0.49398374     0.02800
C1373       C  0.38278710  0.03096632  0.49903113    -0.22500
C1374       C  0.40874745  0.03554405  0.49398301     0.12000
S1375       S  0.44937835  0.06051557  0.47998305    -0.06200
C1376       C  0.45188728  0.02967069  0.49129125    -0.09600
C1377       C  0.42865110  0.01884263  0.49789200    -0.26300
S1378       S  0.33294681  0.04916420  0.49935915    -0.03500
C1379       C  0.33027552  0.08006593  0.48829642    -0.16900
C1380       C  0.35352015  0.09067069  0.48096786    -0.14900
H1381       H  0.40575450  0.09667953  0.47196938     0.20500
H1382       H  0.37649384  0.01286509  0.50671425     0.16500
H1383       H  0.42652417  0.99976363  0.50551734     0.19000
H1384       H  0.35585073  0.11002616  0.47413052     0.12400
C1385       C  0.55604937  0.01632322  0.58189291     0.16200
C1386       C  0.57595723  0.02083454  0.59928195    -0.32800
C1387       C  0.57178388  0.01486896  0.62517605     0.20600
C1388       C  0.54863064  0.00528145  0.63348724     0.02800
C1389       C  0.52862007  0.00107411  0.61616373    -0.22500
C1390       C  0.53296737  0.00656927  0.59021651     0.12000
S1391       S  0.55772258  0.02092118  0.54946932    -0.06200
C1392       C  0.52713123  0.00915364  0.54701463    -0.09600
C1393       C  0.51634690  0.00250751  0.57033633    -0.26300
S1394       S  0.54777790  0.99822860  0.66545635    -0.03500
C1395       C  0.57910708  0.00793903  0.66774559    -0.16900
C1396       C  0.58925786  0.01653654  0.64472339    -0.14900
H1397       H  0.59415740  0.02808804  0.59280378     0.20500
H1398       H  0.51063152  0.99322490  0.62254217     0.16500
H1399       H  0.49742326  0.99459927  0.57251971     0.19000
H1400       H  0.60866821  0.02306986  0.64226927     0.12400
C1401       C  0.51485849  0.91919449  0.44261741     0.16200
C1402       C  0.52036055  0.90145184  0.42326112    -0.32800
C1403       C  0.51326632  0.87587329  0.42720834     0.20600
C1404       C  0.50140600  0.86815093  0.44953735     0.02800
C1405       C  0.49615307  0.88585825  0.46905164    -0.22500
C1406       C  0.50308369  0.91150520  0.46501662     0.12000
S1407       S  0.52088323  0.95132727  0.44102907    -0.06200
C1408       C  0.50748105  0.95450537  0.47092232    -0.09600
C1409       C  0.49894214  0.93166853  0.48134419    -0.26300
S1410       S  0.49342619  0.83637481  0.45001697    -0.03500
C1411       C  0.50602760  0.83346291  0.41969411    -0.16900
C1412       C  0.51604914  0.85612014  0.41016058    -0.14900
H1413       H  0.52937735  0.90741824  0.40564839     0.20500
H1414       H  0.48668002  0.87998664  0.48645506     0.16500
H1415       H  0.48975810  0.93003843  0.49979133     0.19000
H1416       H  0.52444155  0.85819372  0.39138283     0.12400
C1417       C  0.45031159  0.89704903  0.28920790     0.16200
C1418       C  0.46932002  0.87817471  0.29030079    -0.32800
C1419       C  0.46290884  0.85493475  0.30209367     0.20600
C1420       C  0.43857989  0.85063580  0.31158578     0.02800
C1421       C  0.41987472  0.86929026  0.31051882    -0.22500
C1422       C  0.42649723  0.89251650  0.29967479     0.12000
S1423       S  0.45313000  0.92650447  0.27522797    -0.06200
C1424       C  0.42199507  0.93226686  0.28415047    -0.09600
C1425       C  0.41063038  0.91265909  0.29750844    -0.26300
S1426       S  0.43467616  0.82295310  0.32753427    -0.03500
C1427       C  0.46648136  0.81726797  0.32264605    -0.16900
C1428       C  0.47915241  0.83534831  0.30811797    -0.14900
H1429       H  0.48827492  0.88162734  0.28291025     0.20500
H1430       H  0.40113097  0.86613348  0.31861031     0.16500
H1431       H  0.39098386  0.91239550  0.30392235     0.19000
H1432       H  0.49952884  0.83562764  0.30483810     0.12400
C1433       C  0.43725888  0.15813007  0.20343987     0.16200
C1434       C  0.41689307  0.14322559  0.21135221    -0.32800
C1435       C  0.42258651  0.11922170  0.22117453     0.20600
C1436       C  0.44742012  0.11065729  0.22434560     0.02800
C1437       C  0.46798508  0.12618116  0.21748258    -0.22500
C1438       C  0.46224802  0.14991988  0.20651948     0.12000
S1439       S  0.43369796  0.18485956  0.18566776    -0.06200
C1440       C  0.46613402  0.18513126  0.18228589    -0.09600
C1441       C  0.47911296  0.16586265  0.19476139    -0.26300
S1442       S  0.44979104  0.07964691  0.23427596    -0.03500
C1443       C  0.41709400  0.07844924  0.23297742    -0.16900
C1444       C  0.40519947  0.10092937  0.22625608    -0.14900
H1445       H  0.39740034  0.14919343  0.20803555     0.20500
H1446       H  0.48741949  0.11935725  0.21889148     0.16500
H1447       H  0.49936975  0.16224680  0.19300216     0.19000
H1448       H  0.38479058  0.10349632  0.22433591     0.12400
C1449       C  0.28499950  0.05304639  0.34134886     0.16200
C1450       C  0.27582814  0.07319271  0.35605141    -0.32800
C1451       C  0.27196073  0.06858598  0.38198622     0.20600
C1452       C  0.27554885  0.04468170  0.39279661     0.02800
C1453       C  0.28387598  0.02418296  0.37781196    -0.22500
C1454       C  0.28904887  0.02912725  0.35200195     0.12000
S1455       S  0.29656126  0.05668040  0.31127750    -0.06200
C1456       C  0.30748822  0.02592228  0.31320459    -0.09600
C1457       C  0.30166978  0.01325935  0.33561275    -0.26300
S1458       S  0.27165661  0.04387893  0.42523422    -0.03500
C1459       C  0.26635548  0.07620137  0.42386876    -0.16900
C1460       C  0.26669962  0.08667745  0.39972157    -0.14900
H1461       H  0.27382099  0.09216074  0.34808760     0.20500
H1462       H  0.28793421  0.00576770  0.38625432     0.16500
H1463       H  0.30895863  0.99460386  0.34074888     0.19000
H1464       H  0.26391603  0.10672802  0.39547479     0.12400
C1465       C  0.44582410  0.01644381  0.08598072     0.16200
C1466       C  0.42683872  0.02420356  0.10334067    -0.32800
C1467       C  0.43026685  0.01826411  0.12934712     0.20600
C1468       C  0.45175063  0.00539692  0.13777687     0.02800
C1469       C  0.47073556  0.99766425  0.12042814    -0.22500
C1470       C  0.46717244  0.00333381  0.09441384     0.12000
S1471       S  0.44516834  0.02137425  0.05356776    -0.06200
C1472       C  0.47386677  0.00541446  0.05134840    -0.09600
C1473       C  0.48318831  0.99685905  0.07463884    -0.26300
S1474       S  0.45172957  0.99904042  0.16993313    -0.03500
C1475       C  0.42224426  0.01353966  0.17214915    -0.16900
C1476       C  0.41338257  0.02303209  0.14892899    -0.14900
H1477       H  0.40993693  0.03412250  0.09681511     0.20500
H1478       H  0.48739085  0.98728356  0.12687607     0.16500
H1479       H  0.50090093  0.98646607  0.07692583     0.19000
H1480       H  0.39496705  0.03201515  0.14628528     0.12400
C1481       C  0.41788574  0.98333658  0.38247359     0.16200
C1482       C  0.42101506  0.97685459  0.40836739    -0.32800
C1483       C  0.44277489  0.98595194  0.42107775     0.20600
C1484       C  0.46060584  0.00083842  0.40845421     0.02800
C1485       C  0.45753972  0.00721044  0.38257162    -0.22500
C1486       C  0.43579764  0.99813206  0.36989396     0.12000
S1487       S  0.39242980  0.97492651  0.36390504    -0.06200
C1488       C  0.40598440  0.99149050  0.33884321    -0.09600
C1489       C  0.42915282  0.00278114  0.34487611    -0.26300
S1490       S  0.48531188  0.01061598  0.42723152    -0.03500
C1491       C  0.47171586  0.99437695  0.45240391    -0.16900
C1492       C  0.44905689  0.98215287  0.44638576    -0.14900
H1493       H  0.40695061  0.96542564  0.41824697     0.20500
H1494       H  0.47140646  0.01897118  0.37279584     0.16500
H1495       H  0.44027141  0.01429636  0.33182454     0.19000
H1496       H  0.43768440  0.97140606  0.45985652     0.12400
C1497       C  0.65919080  0.29041560  0.55443083     0.16200
C1498       C  0.64358643  0.28270865  0.57439250    -0.32800
C1499       C  0.61801105  0.27865353  0.56879788     0.20600
C1500       C  0.60835388  0.28071992  0.54425183     0.02800
C1501       C  0.62425506  0.28761794  0.52398561    -0.22500
C1502       C  0.64975517  0.29288984  0.52981184     0.12000
S1503       S  0.68890597  0.30210691  0.55884918    -0.06200
C1504       C  0.68848101  0.31094420  0.52744149    -0.09600
C1505       C  0.66689482  0.30429926  0.51399380    -0.26300
S1506       S  0.57616762  0.27631034  0.54212787    -0.03500
C1507       C  0.57615241  0.27276176  0.57470704    -0.16900
C1508       C  0.59963513  0.27417023  0.58628829    -0.14900
H1509       H  0.65061320  0.28186624  0.59380031     0.20500
H1510       H  0.61675261  0.29043057  0.50495440     0.16500
H1511       H  0.66270657  0.31046401  0.49471130     0.19000
H1512       H  0.60304361  0.27217735  0.60658815     0.12400
C1513       C  0.52922350  0.14114166  0.69900043     0.16200
C1514       C  0.53078304  0.12251959  0.71819900    -0.32800
C1515       C  0.54412678  0.09996371  0.71230255     0.20600
C1516       C  0.55449356  0.09598637  0.68822977     0.02800
C1517       C  0.55264731  0.11421899  0.66925288    -0.22500
C1518       C  0.54041657  0.13685126  0.67542735     0.12000
S1519       S  0.51473889  0.17039075  0.70160068    -0.06200
C1520       C  0.52469889  0.17640168  0.67081505    -0.09600
C1521       C  0.53833452  0.15692917  0.65957753    -0.26300
S1522       S  0.57288033  0.06979162  0.68515516    -0.03500
C1523       C  0.56767179  0.06427409  0.71691761    -0.16900
C1524       C  0.55133281  0.08121501  0.72899930    -0.14900
H1525       H  0.52297458  0.12586411  0.73703325     0.20500
H1526       H  0.56157330  0.11142598  0.65080430     0.16500
H1527       H  0.54567468  0.15699208  0.64023330     0.19000
H1528       H  0.54761967  0.08158388  0.74932541     0.12400
C1529       C  0.35565960  0.20285446  0.53249518     0.16200
C1530       C  0.37253533  0.22310379  0.53684076    -0.32800
C1531       C  0.39630648  0.21707430  0.54761199     0.20600
C1532       C  0.40296145  0.19205748  0.55324300     0.02800
C1533       C  0.38640492  0.17200786  0.54860221    -0.22500
C1534       C  0.36265271  0.17806756  0.53857321     0.12000
S1535       S  0.32550630  0.20554758  0.52033506    -0.06200
C1536       C  0.32267073  0.17304499  0.52420654    -0.09600
C1537       C  0.34386460  0.16106228  0.53411688    -0.26300
S1538       S  0.43071559  0.18845140  0.56909250    -0.03500
C1539       C  0.43366156  0.22096718  0.56849961    -0.16900
C1540       C  0.41427755  0.23394702  0.55610669    -0.14900
H1541       H  0.36709799  0.24262814  0.53284273     0.20500
H1542       H  0.39140279  0.15259113  0.55364664     0.16500
H1543       H  0.34569368  0.14072479  0.53737633     0.19000
H1544       H  0.41217159  0.25449489  0.55571846     0.12400
C1545       C  0.46015983  0.39975345  0.70773900     0.16200
C1546       C  0.47510547  0.38711356  0.68977420    -0.32800
C1547       C  0.47292006  0.36062754  0.68869069     0.20600
C1548       C  0.45766863  0.34701646  0.70555416     0.02800
C1549       C  0.44316442  0.35962463  0.72394155    -0.22500
C1550       C  0.44432907  0.38623666  0.72413942     0.12000
S1551       S  0.45667468  0.43199452  0.70893586    -0.06200
C1552       C  0.43301787  0.42687783  0.73085186    -0.09600
C1553       C  0.42867393  0.40187277  0.73758281    -0.26300
S1554       S  0.45639444  0.31504687  0.69991515    -0.03500
C1555       C  0.47572772  0.32064869  0.67416434    -0.16900
C1556       C  0.48330010  0.34547073  0.67049734    -0.14900
H1557       H  0.48656052  0.39754808  0.67611260     0.20500
H1558       H  0.43029770  0.34930325  0.73636875     0.16500
H1559       H  0.41355034  0.39547325  0.75013482     0.19000
H1560       H  0.49516755  0.35208007  0.65490688     0.12400
C1561       C  0.51199868  0.36725456  0.54778681     0.16200
C1562       C  0.50727991  0.38449662  0.52781613    -0.32800
C1563       C  0.51098536  0.41060185  0.53260187     0.20600
C1564       C  0.51960640  0.41921555  0.55603245     0.02800
C1565       C  0.52459060  0.40192047  0.57594884    -0.22500
C1566       C  0.52037194  0.37581333  0.57133436     0.12000
S1567       S  0.50647184  0.33510077  0.54649314    -0.06200
C1568       C  0.51512169  0.33306643  0.57816926    -0.09600
C1569       C  0.52238541  0.35626114  0.58876995    -0.26300
S1570       S  0.52224834  0.45178114  0.55806332    -0.03500
C1571       C  0.51107328  0.45380911  0.52717492    -0.16900
C1572       C  0.50603591  0.43032034  0.51606885    -0.14900
H1573       H  0.50027119  0.37791323  0.50955012     0.20500
H1574       H  0.53082396  0.40858694  0.59446239     0.16500
H1575       H  0.52765709  0.35889959  0.60856207     0.19000
H1576       H  0.49867506  0.42787831  0.49693525     0.12400
C1577       C  0.48110989  0.08227379  0.55610024     0.16200
C1578       C  0.47445522  0.10070183  0.57437126    -0.32800
C1579       C  0.48311362  0.12577406  0.57055602     0.20600
C1580       C  0.49755231  0.13234138  0.54939294     0.02800
C1581       C  0.50431882  0.11390061  0.53119509    -0.22500
C1582       C  0.49588306  0.08879412  0.53513995     0.12000
S1583       S  0.47264991  0.05071881  0.55721456    -0.06200
C1584       C  0.48946169  0.04631514  0.52932284    -0.09600
C1585       C  0.50084592  0.06819228  0.51982527    -0.26300
S1586       S  0.50649909  0.16373154  0.54852185    -0.03500
C1587       C  0.49091035  0.16803412  0.57717300    -0.16900
C1588       C  0.47931759  0.14612856  0.58656116    -0.14900
H1589       H  0.46318863  0.09568210  0.59095377     0.20500
H1590       H  0.51586057  0.11885210  0.51478025     0.16500
H1591       H  0.51214328  0.06889963  0.50252407     0.19000
H1592       H  0.46906727  0.14503140  0.60448231     0.12400
C1593       C  0.26066934  0.19930479  0.61591831     0.16200
C1594       C  0.25679243  0.21918240  0.63347587    -0.32800
C1595       C  0.26134301  0.21411351  0.65941153     0.20600
C1596       C  0.26994156  0.19045975  0.66752896     0.02800
C1597       C  0.27410000  0.17061778  0.64991336    -0.22500
C1598       C  0.26902610  0.17553700  0.62398686     0.12000
S1599       S  0.25424762  0.20108711  0.58394068    -0.06200
C1600       C  0.26245591  0.16932105  0.58129238    -0.09600
C1601       C  0.27022646  0.15830119  0.60418206    -0.26300
S1602       S  0.27354126  0.18808237  0.69997202    -0.03500
C1603       C  0.26252374  0.21903257  0.70271015    -0.16900
C1604       C  0.25724022  0.23055138  0.67943712    -0.14900
H1605       H  0.24979234  0.23761671  0.62726800     0.20500
H1606       H  0.28034289  0.15195122  0.65622649     0.16500
H1607       H  0.27547089  0.13843345  0.60642285     0.19000
H1608       H  0.25013918  0.24985890  0.67737836     0.12400
C1609       C  0.19296794  0.16807287  0.73320384     0.16200
C1610       C  0.17276966  0.15099370  0.72871424    -0.32800
C1611       C  0.17722770  0.12475653  0.73276327     0.20600
C1612       C  0.20080338  0.11592458  0.74076794     0.02800
C1613       C  0.22091664  0.13299022  0.74537034    -0.22500
C1614       C  0.21639219  0.15919266  0.74156978     0.12000
S1615       S  0.19155073  0.20064401  0.72967216    -0.06200
C1616       C  0.22285271  0.20235942  0.73969628    -0.09600
C1617       C  0.23338951  0.17872999  0.74564831    -0.26300
S1618       S  0.20217400  0.08354854  0.74534560    -0.03500
C1619       C  0.17052201  0.08168095  0.73668425    -0.16900
C1620       C  0.15982042  0.10521878  0.73033754    -0.14900
H1621       H  0.15430274  0.15787966  0.72256510     0.20500
H1622       H  0.23925309  0.12615382  0.75195166     0.16500
H1623       H  0.25258435  0.17603029  0.75272182     0.19000
H1624       H  0.14006024  0.10802232  0.72508424     0.12400
C1625       C  0.28943238  0.34210431  0.74741487     0.16200
C1626       C  0.29299895  0.36784772  0.74037074    -0.32800
C1627       C  0.31077455  0.38248877  0.75417517     0.20600
C1628       C  0.32446822  0.37183131  0.77409322     0.02800
C1629       C  0.32066809  0.34612523  0.78135777    -0.22500
C1630       C  0.30283786  0.33146644  0.76755817     0.12000
S1631       S  0.26912279  0.32122937  0.73267964    -0.06200
C1632       C  0.27849373  0.29770654  0.75379630    -0.09600
C1633       C  0.29655949  0.30600987  0.77142360    -0.26300
S1634       S  0.34631700  0.39230593  0.78728818    -0.03500
C1635       C  0.33688064  0.41574807  0.76599086    -0.16900
C1636       C  0.31757756  0.40764029  0.74961916    -0.14900
H1637       H  0.28253770  0.37604323  0.72456561     0.20500
H1638       H  0.33143564  0.33780674  0.79688499     0.16500
H1639       H  0.30463992  0.29408208  0.78621928     0.19000
H1640       H  0.30974904  0.41915061  0.73435481     0.12400
C1641       C  0.34399731  0.24840428  0.71242493     0.16200
C1642       C  0.36969456  0.24135004  0.70963475    -0.32800
C1643       C  0.38411424  0.25386988  0.69086095     0.20600
C1644       C  0.37331189  0.27250016  0.67548119     0.02800
C1645       C  0.34763958  0.27964326  0.67835537    -0.22500
C1646       C  0.33323613  0.26719073  0.69718418     0.12000
S1647       S  0.32335270  0.23520548  0.73382694    -0.06200
C1648       C  0.30000325  0.25530317  0.72234292    -0.09600
C1649       C  0.30789256  0.27126753  0.70279103    -0.26300
S1650       S  0.39347590  0.28435205  0.65283392    -0.03500
C1651       C  0.41681861  0.26405516  0.66411816    -0.16900
C1652       C  0.40917748  0.24909910  0.68460538    -0.14900
H1653       H  0.37801638  0.22655841  0.72143459     0.20500
H1654       H  0.33918490  0.29408245  0.66622521     0.16500
H1655       H  0.29573490  0.28487758  0.69311612     0.19000
H1656       H  0.42089539  0.23463343  0.69358617     0.12400
C1657       C  0.29880309  0.47366190  0.85528995     0.16200
C1658       C  0.27814734  0.46543060  0.87008118    -0.32800
C1659       C  0.28344219  0.45705500  0.89496417     0.20600
C1660       C  0.30796503  0.45766706  0.90485010     0.02800
C1661       C  0.32824659  0.46683142  0.89054680    -0.22500
C1662       C  0.32313792  0.47419244  0.86556983     0.12000
S1663       S  0.29757867  0.48098273  0.82346196    -0.06200
C1664       C  0.33020610  0.48362378  0.82440121    -0.09600
C1665       C  0.34107116  0.48010696  0.84806269    -0.26300
S1666       S  0.31165658  0.44288002  0.93333675    -0.03500
C1667       C  0.27987982  0.43583062  0.93216093    -0.16900
C1668       C  0.26698001  0.44478753  0.91097757    -0.14900
H1669       H  0.25921390  0.46398546  0.86205215     0.20500
H1670       H  0.34752336  0.46639612  0.89790582     0.16500
H1671       H  0.36132341  0.48081319  0.85204807     0.19000
H1672       H  0.24735372  0.44037159  0.90644271     0.12400
C1673       C  0.19669533  0.47052189  0.13869395     0.16200
C1674       C  0.21600381  0.46800687  0.12027272    -0.32800
C1675       C  0.21024164  0.45391617  0.09819466     0.20600
C1676       C  0.18622424  0.44351759  0.09449951     0.02800
C1677       C  0.16698829  0.44654585  0.11242941    -0.22500
C1678       C  0.17297073  0.45975345  0.13459832     0.12000
S1679       S  0.19949725  0.48554259  0.16762479    -0.06200
C1680       C  0.16853037  0.47655506  0.17387901    -0.09600
C1681       C  0.15699775  0.46294376  0.15457607    -0.26300
S1682       S  0.18346301  0.42419054  0.06887397    -0.03500
C1683       C  0.21512062  0.42962431  0.06296161    -0.16900
C1684       C  0.22700217  0.44630971  0.07959725    -0.14900
H1685       H  0.23485382  0.47568750  0.12346142     0.20500
H1686       H  0.14849281  0.43781499  0.10981400     0.16500
H1687       H  0.13755975  0.45602698  0.15487977     0.19000
H1688       H  0.24721198  0.45041457  0.07963693     0.12400
C1689       C  0.40130662  0.30834129  0.05628309     0.16200
C1690       C  0.38513764  0.32860710  0.05107595    -0.32800
C1691       C  0.36177576  0.32296603  0.04007349     0.20600
C1692       C  0.35464261  0.29834919  0.03372141     0.02800
C1693       C  0.37107952  0.27777309  0.03887133    -0.22500
C1694       C  0.39457749  0.28342342  0.05048589     0.12000
S1695       S  0.42885178  0.31170909  0.07252772    -0.06200
C1696       C  0.43166270  0.27917799  0.07195648    -0.09600
C1697       C  0.41236014  0.26636450  0.05929821    -0.26300
S1698       S  0.32501015  0.29646405  0.02000115    -0.03500
C1699       C  0.32267496  0.32907367  0.02365977    -0.16900
C1700       C  0.34362964  0.34039868  0.03464464    -0.14900
H1701       H  0.39021862  0.34796318  0.05617147     0.20500
H1702       H  0.36560844  0.25834309  0.03461388     0.16500
H1703       H  0.41027871  0.24582905  0.05871813     0.19000
H1704       H  0.34579831  0.36067221  0.03804067     0.12400
C1705       C  0.07960827  0.44155769  0.01628869     0.16200
C1706       C  0.09728721  0.42183839  0.02074104    -0.32800
C1707       C  0.12277706  0.42593392  0.01340376     0.20600
C1708       C  0.13034524  0.44873474  0.00237388     0.02800
C1709       C  0.11271130  0.46837571  0.99790889    -0.22500
C1710       C  0.08725750  0.46419507  0.00498713     0.12000
S1711       S  0.04760294  0.44023118  0.02290882    -0.06200
C1712       C  0.04457201  0.47033836  0.00995105    -0.09600
C1713       C  0.06727615  0.48068394  0.00129684    -0.26300
S1714       S  0.16193820  0.44991910  0.99443382    -0.03500
C1715       C  0.16514341  0.41923706  0.00582980    -0.16900
C1716       C  0.14267662  0.40889381  0.01538956    -0.14900
H1717       H  0.09137473  0.40396499  0.02923169     0.20500
H1718       H  0.11852561  0.48606577  0.98896646     0.16500
H1719       H  0.06890847  0.49916472  0.99219407     0.19000
H1720       H  0.14092388  0.38978439  0.02304177     0.12400
C1721       C  0.42082196  0.44271858  0.98080217     0.16200
C1722       C  0.40260428  0.42380750  0.97581572    -0.32800
C1723       C  0.37713431  0.42887382  0.98254655     0.20600
C1724       C  0.36997280  0.45179899  0.99361157     0.02800
C1725       C  0.38817644  0.47080175  0.99844757    -0.22500
C1726       C  0.41369302  0.46566371  0.99187724     0.12000
S1727       S  0.45290741  0.43983962  0.97517059    -0.06200
C1728       C  0.45678658  0.46977785  0.98809848    -0.09600
C1729       C  0.43425156  0.48127149  0.99599067    -0.26300
S1730       S  0.33817616  0.45371405  0.00117183    -0.03500
C1731       C  0.33448885  0.42324445  0.98935231    -0.16900
C1732       C  0.35691578  0.41252895  0.98000388    -0.14900
H1733       H  0.40810974  0.40572720  0.96744479     0.20500
H1734       H  0.38276639  0.48865211  0.00735516     0.16500
H1735       H  0.43313855  0.49984543  0.00496897     0.19000
H1736       H  0.35847414  0.39345363  0.97221725     0.12400
C1737       C  0.24880810  0.28538199  0.83973670     0.16200
C1738       C  0.25299697  0.28685331  0.86619389    -0.32800
C1739       C  0.24683437  0.30980105  0.87861069     0.20600
C1740       C  0.23675097  0.33024992  0.86517107     0.02800
C1741       C  0.23262315  0.32880841  0.83871092    -0.22500
C1742       C  0.23897231  0.30594775  0.82627305     0.12000
S1743       S  0.25543541  0.25939479  0.82127984    -0.06200
C1744       C  0.24500576  0.27635059  0.79509104    -0.09600
C1745       C  0.23683155  0.30093459  0.80053605    -0.26300
S1746       S  0.23082697  0.35649412  0.88345990    -0.03500
C1747       C  0.24229205  0.34002996  0.90961821    -0.16900
C1748       C  0.25010319  0.31527821  0.90416911    -0.14900
H1749       H  0.26092739  0.27085516  0.87660307     0.20500
H1750       H  0.22499517  0.34491389  0.82824205     0.16500
H1751       H  0.22991435  0.31437505  0.78645237     0.19000
H1752       H  0.25808345  0.30217789  0.91801050     0.12400
C1753       C  0.19549852  0.38452857  0.24290305     0.16200
C1754       C  0.21459569  0.36660503  0.24875942    -0.32800
C1755       C  0.21081337  0.34115750  0.24117552     0.20600
C1756       C  0.18897505  0.33381412  0.22831640     0.02800
C1757       C  0.16990550  0.35177047  0.22239205    -0.22500
C1758       C  0.17367649  0.37723805  0.22999868     0.12000
S1759       S  0.19600504  0.41611712  0.25130416    -0.06200
C1760       C  0.16643427  0.41968867  0.23734615    -0.09600
C1761       C  0.15699072  0.39730205  0.22672092    -0.26300
S1762       S  0.18775746  0.30183627  0.22143612    -0.03500
C1763       C  0.21704429  0.29834989  0.23593118    -0.16900
C1764       C  0.22696422  0.32091371  0.24552847    -0.14900
H1765       H  0.23156189  0.37220149  0.25904960     0.20500
H1766       H  0.15271935  0.34607768  0.21253459     0.16500
H1767       H  0.13849125  0.39559670  0.21776554     0.19000
H1768       H  0.24493661  0.32229790  0.25555126     0.12400
C1769       C  0.23049148  0.19518565  0.32754247     0.16200
C1770       C  0.22557788  0.17568118  0.34530815    -0.32800
C1771       C  0.23321628  0.17953557  0.37075680     0.20600
C1772       C  0.24501031  0.20190969  0.37828805     0.02800
C1773       C  0.24973481  0.22149138  0.36057664    -0.22500
C1774       C  0.24232330  0.21754253  0.33509705     0.12000
S1775       S  0.22375584  0.19385430  0.29552244    -0.06200
C1776       C  0.23710075  0.22370745  0.29229635    -0.09600
C1777       C  0.24611345  0.23393795  0.31497439    -0.26300
S1778       S  0.25348006  0.20251163  0.40988991    -0.03500
C1779       C  0.24110278  0.17221448  0.41308238    -0.16900
C1780       C  0.23089189  0.16249878  0.39060148    -0.14900
H1781       H  0.21656726  0.15807258  0.33946450     0.20500
H1782       H  0.25916842  0.23890976  0.36632380     0.16500
H1783       H  0.25541925  0.25228654  0.31650299     0.19000
H1784       H  0.22252145  0.14372924  0.38877487     0.12400
C1785       C  0.37781583  0.25016245  0.19620826     0.16200
C1786       C  0.35932946  0.25709952  0.21434412    -0.32800
C1787       C  0.33426311  0.24845430  0.21066106     0.20600
C1788       C  0.32777462  0.23344947  0.18990394     0.02800
C1789       C  0.34629239  0.22647706  0.17176652    -0.22500
C1790       C  0.37136115  0.23526870  0.17537824     0.12000
S1791       S  0.40919498  0.25922085  0.19688017    -0.06200
C1792       C  0.41373745  0.24295145  0.16865403    -0.09600
C1793       C  0.39184128  0.23114151  0.15951366    -0.26300
S1794       S  0.29611392  0.22528519  0.18881314    -0.03500
C1795       C  0.29168169  0.24236435  0.21655434    -0.16900
C1796       C  0.31364979  0.25354939  0.22599505    -0.14900
H1797       H  0.36422337  0.26892709  0.23053633     0.20500
H1798       H  0.34133200  0.21491480  0.15540538     0.16500
H1799       H  0.39088208  0.22034267  0.14193294     0.19000
H1800       H  0.31436960  0.26505810  0.24313167     0.12400
C1801       C  0.29743048  0.16792819  0.26569311     0.16200
C1802       C  0.31361813  0.14881215  0.27516551    -0.32800
C1803       C  0.31175341  0.12429446  0.26450703     0.20600
C1804       C  0.29435110  0.11882865  0.24544075     0.02800
C1805       C  0.27812196  0.13797183  0.23593332    -0.22500
C1806       C  0.28020565  0.16260486  0.24639964     0.12000
S1807       S  0.29690343  0.19897460  0.27597121    -0.06200
C1808       C  0.27339144  0.20491173  0.25388297    -0.09600
C1809       C  0.26643769  0.18382128  0.23949125    -0.26300
S1810       S  0.29581649  0.08795744  0.23458506    -0.03500
C1811       C  0.32045328  0.08250677  0.25567225    -0.16900
C1812       C  0.32668791  0.10361874  0.27041469    -0.14900
H1813       H  0.32732152  0.15294360  0.29001936     0.20500
H1814       H  0.26469039  0.13393597  0.22080736     0.16500
H1815       H  0.25186179  0.18403567  0.22488809     0.19000
H1816       H  0.34200621  0.10405851  0.28423327     0.12400
C1817       C  0.24470049  0.28818243  0.15298809     0.16200
C1818       C  0.23665418  0.29241312  0.12781198    -0.32800
C1819       C  0.25137232  0.30862733  0.11244589     0.20600
C1820       C  0.27323483  0.32011336  0.12174803     0.02800
C1821       C  0.28164280  0.31539530  0.14682432    -0.22500
C1822       C  0.26677867  0.29926395  0.16228945     0.12000
S1823       S  0.22867173  0.27008867  0.17475327    -0.06200
C1824       C  0.25180098  0.27741671  0.19682531    -0.09600
C1825       C  0.27110405  0.29297764  0.18750282    -0.26300
S1826       S  0.28689644  0.34118740  0.10087060    -0.03500
C1827       C  0.26301083  0.33430643  0.07934839    -0.16900
C1828       C  0.24567118  0.31633740  0.08800508    -0.14900
H1829       H  0.21927349  0.28391339  0.12069994     0.20500
H1830       H  0.29860613  0.32449457  0.15418662     0.16500
H1831       H  0.28721921  0.29945419  0.19859643     0.19000
H1832       H  0.22883412  0.31050720  0.07763098     0.12400
C1833       C  0.90748392  0.31001907  0.45471155     0.16200
C1834       C  0.89157809  0.32988980  0.46212570    -0.32800
C1835       C  0.86720949  0.32348934  0.47041790     0.20600
C1836       C  0.85909137  0.29841984  0.47250332     0.02800
C1837       C  0.87542641  0.27831766  0.46583155    -0.22500
C1838       C  0.89965666  0.28480031  0.45650320     0.12000
S1839       S  0.93546086  0.31456826  0.43920253    -0.06200
C1840       C  0.93669950  0.28224409  0.43486865    -0.09600
C1841       C  0.91678389  0.26858241  0.44540778    -0.26300
S1842       S  0.82791841  0.29528407  0.48168688    -0.03500
C1843       C  0.82609581  0.32806326  0.48161195    -0.16900
C1844       C  0.84845949  0.34044758  0.47560841    -0.14900
H1845       H  0.89731481  0.34959394  0.45985840     0.20500
H1846       H  0.86905721  0.25870354  0.46644941     0.33300
H1847       H  0.91368622  0.24835359  0.44264906     0.19000
H1848       H  0.85082502  0.36096364  0.47481605     0.12400
C1849       C  0.15819784  0.20652528  0.43750951     0.16200
C1850       C  0.14185726  0.21213242  0.41749046    -0.32800
C1851       C  0.11825909  0.22250443  0.42371023     0.20600
C1852       C  0.11145275  0.22852197  0.44856835     0.02800
C1853       C  0.12841295  0.22386813  0.46870665    -0.22500
C1854       C  0.15176619  0.21220119  0.46258190     0.12000
S1855       S  0.18446873  0.18822966  0.43388352    -0.06200
C1856       C  0.18699834  0.18778241  0.46642671    -0.09600
C1857       C  0.16879665  0.20185080  0.47944444    -0.26300
S1858       S  0.08079187  0.23935372  0.45172016    -0.03500
C1859       C  0.07737649  0.23456452  0.41940417    -0.16900
C1860       C  0.09893160  0.22593606  0.40703475    -0.14900
H1861       H  0.14648246  0.20668653  0.39808911     0.20500
H1862       H  0.12295804  0.22746731  0.48830565     0.16500
H1863       H  0.16638568  0.20183918  0.49996931     0.19000
H1864       H  0.10032409  0.22200912  0.38678002     0.12400
C1865       C  0.04502252  0.34624810  0.29066811     0.16200
C1866       C  0.06491289  0.36001017  0.27971499    -0.32800
C1867       C  0.06150975  0.38627791  0.27698002     0.20600
C1868       C  0.03876169  0.39830658  0.28325236     0.02800
C1869       C  0.01841476  0.38431773  0.29340214    -0.22500
C1870       C  0.02237816  0.35815869  0.29756465     0.12000
S1871       S  0.04799792  0.31563105  0.30092137    -0.06200
C1872       C  0.01882019  0.31903437  0.31525042    -0.09600
C1873       C  0.00703410  0.34236661  0.31150771    -0.26300
S1874       S  0.03943432  0.43079342  0.28013334    -0.03500
C1875       C  0.07095489  0.42780548  0.27158266    -0.16900
C1876       C  0.08001207  0.40311960  0.27033372    -0.14900
H1877       H  0.08303352  0.35100207  0.27549630     0.20500
H1878       H  0.00105550  0.39369895  0.29954468     0.16500
H1879       H  0.98953319  0.34829514  0.32077938     0.19000
H1880       H  0.09938323  0.39784765  0.26539000     0.12400
C1881       C  0.97925769  0.42478989  0.43881093     0.16200
C1882       C  0.97392684  0.40693456  0.41946892    -0.32800
C1883       C  0.98246590  0.38163801  0.42288409     0.20600
C1884       C  0.99580430  0.37451155  0.44455738     0.02800
C1885       C  0.00112316  0.39231167  0.46383818    -0.22500
C1886       C  0.99248998  0.41749312  0.46049278     0.12000
S1887       S  0.97111838  0.45656619  0.43825237    -0.06200
C1888       C  0.98555243  0.45991389  0.46762039    -0.09600
C1889       C  0.99605573  0.43749246  0.47704118    -0.26300
S1890       S  0.00485499  0.34311598  0.44503973    -0.03500
C1891       C  0.99044494  0.33925028  0.41573706    -0.16900
C1892       C  0.97933864  0.36148147  0.40626425    -0.14900
H1893       H  0.96366383  0.41253700  0.40245031     0.20500
H1894       H  0.01162913  0.38677391  0.48073458     0.16500
H1895       H  0.00630217  0.43608220  0.49490955     0.19000
H1896       H  0.96970168  0.36288171  0.38806325     0.12400
C1897       C  0.83906378  0.24775052  0.29172415     0.16200
C1898       C  0.86463648  0.25501898  0.29443976    -0.32800
C1899       C  0.87886882  0.24396262  0.31422166     0.20600
C1900       C  0.86808959  0.22643541  0.33080006     0.02800
C1901       C  0.84242664  0.21880041  0.32785704    -0.22500
C1902       C  0.82812570  0.22988003  0.30786496     0.12000
S1903       S  0.81884512  0.25986158  0.26927820    -0.06200
C1904       C  0.79521998  0.24042997  0.28111275    -0.09600
C1905       C  0.80278872  0.22548744  0.30179913    -0.26300
S1906       S  0.88848159  0.21667706  0.35456004    -0.03500
C1907       C  0.91177249  0.23627224  0.34180546    -0.16900
C1908       C  0.90381952  0.24940278  0.32020318    -0.14900
H1909       H  0.87302810  0.26902881  0.28179447     0.20500
H1910       H  0.83390541  0.20513402  0.34078012     0.16500
H1911       H  0.79044434  0.21237104  0.31186519     0.19000
H1912       H  0.91540025  0.26307192  0.30994023     0.12400
C1913       C  0.16491967  0.27034966  0.30244021     0.16200
C1914       C  0.14715358  0.27686346  0.32140398    -0.32800
C1915       C  0.12162655  0.26974982  0.31760596     0.20600
C1916       C  0.11400273  0.25676638  0.29591295     0.02800
C1917       C  0.13176196  0.25030207  0.27691387    -0.22500
C1918       C  0.15730261  0.25732602  0.28074839     0.12000
S1919       S  0.19690784  0.27683222  0.30355703    -0.06200
C1920       C  0.19998466  0.26170027  0.27456478    -0.09600
C1921       C  0.17737024  0.25230331  0.26473309    -0.26300
S1922       S  0.08226486  0.24901561  0.29550747    -0.03500
C1923       C  0.07922374  0.26337676  0.32493731    -0.16900
C1924       C  0.10178898  0.27366998  0.33420286    -0.14900
H1925       H  0.15300870  0.28681531  0.33851434     0.20500
H1926       H  0.12598870  0.23996015  0.26001076     0.16500
H1927       H  0.17580985  0.24215886  0.24680893     0.19000
H1928       H  0.10377451  0.28286104  0.35259633     0.12400
C1929       C  0.79073545  0.46051273  0.64987875     0.16200
C1930       C  0.77131534  0.44734119  0.63734053    -0.32800
C1931       C  0.77320391  0.44521543  0.61076287     0.20600
C1932       C  0.79278791  0.45670434  0.59713277     0.02800
C1933       C  0.81173690  0.47042134  0.60957528    -0.22500
C1934       C  0.81057761  0.47141012  0.63615189     0.12000
S1935       S  0.79400940  0.46241480  0.68224802    -0.06200
C1936       C  0.82272388  0.47706543  0.67678402    -0.09600
C1937       C  0.82903957  0.48085120  0.65155829    -0.26300
S1938       S  0.79384554  0.44915284  0.56560628    -0.03500
C1939       C  0.76823562  0.42975351  0.57108554    -0.16900
C1940       C  0.75883859  0.42975346  0.59569891    -0.14900
H1941       H  0.75641528  0.43774240  0.64792008     0.20500
H1942       H  0.82768893  0.47837942  0.59915772     0.16500
H1943       H  0.84661259  0.48941798  0.64490746     0.19000
H1944       H  0.74381924  0.41738005  0.60258668     0.12400
C1945       C  0.80244373  0.55934590  0.84408070     0.16200
C1946       C  0.79619285  0.57932343  0.86029916    -0.32800
C1947       C  0.78705299  0.57304402  0.88441473     0.20600
C1948       C  0.78341832  0.54802640  0.89215583     0.02800
C1949       C  0.78932208  0.52779655  0.87560642    -0.22500
C1950       C  0.79913267  0.53412890  0.85143289     0.12000
S1951       S  0.81750352  0.56358008  0.81582698    -0.06200
C1952       C  0.81952576  0.53107932  0.81358323    -0.09600
C1953       C  0.80870967  0.51761284  0.83359126    -0.26300
S1954       S  0.77246291  0.54514004  0.92287120    -0.03500
C1955       C  0.77356773  0.57793894  0.92490551    -0.16900
C1956       C  0.78159116  0.59009801  0.90299481    -0.14900
H1957       H  0.79942015  0.59896464  0.85477832     0.20500
H1958       H  0.78725349  0.50814257  0.88158202     0.16500
H1959       H  0.81005463  0.49714627  0.83608441     0.19000
H1960       H  0.78322413  0.61056896  0.90066823     0.12400
C1961       C  0.94913363  0.50687478  0.63058917     0.16200
C1962       C  0.96850707  0.50198160  0.61276333    -0.32800
C1963       C  0.96405313  0.50902848  0.58729496     0.20600
C1964       C  0.94154443  0.52081352  0.57991931     0.02800
C1965       C  0.92231541  0.52589160  0.59776767    -0.22500
C1966       C  0.92657738  0.51848074  0.62311860     0.12000
S1967       S  0.95001229  0.49847276  0.66214524    -0.06200
C1968       C  0.91953616  0.51046954  0.66514415    -0.09600
C1969       C  0.90959830  0.52063337  0.64283527    -0.26300
S1970       S  0.93947945  0.52720288  0.54798753    -0.03500
C1971       C  0.96913428  0.51361817  0.54454059    -0.16900
C1972       C  0.97996526  0.50483348  0.56699479    -0.14900
H1973       H  0.98602644  0.49257823  0.61837226     0.20500
H1974       H  0.90454476  0.53472664  0.59203803     0.16500
H1975       H  0.89063905  0.52863406  0.64098570     0.19000
H1976       H  0.99835892  0.49549662  0.56823979     0.12400
C1977       C  0.92269245  0.48115911  0.87843865     0.16200
C1978       C  0.92401172  0.47653215  0.90487085    -0.32800
C1979       C  0.94598975  0.48442739  0.91795305     0.20600
C1980       C  0.96582505  0.49630636  0.90513762     0.02800
C1981       C  0.96455987  0.50082026  0.87866987    -0.22500
C1982       C  0.94249849  0.49305194  0.86561200     0.12000
S1983       S  0.89716674  0.47410414  0.85953229    -0.06200
C1984       C  0.91305014  0.48749069  0.83393176    -0.09600
C1985       C  0.93714579  0.49666202  0.84003342    -0.26300
S1986       S  0.99053551  0.50504659  0.92444499    -0.03500
C1987       C  0.97422266  0.49235020  0.95008556    -0.16900
C1988       C  0.95065275  0.48214893  0.94380428    -0.14900
H1989       H  0.90838821  0.46748272  0.91487372     0.20500
H1990       H  0.97996963  0.51032515  0.86875638     0.16500
H1991       H  0.94970180  0.50621961  0.82671248     0.19000
H1992       H  0.93760322  0.47375090  0.95742443     0.12400
C1993       C  0.80373089  0.62128742  0.75595316     0.16200
C1994       C  0.78361095  0.63885079  0.75354277    -0.32800
C1995       C  0.78864764  0.66465447  0.75877609     0.20600
C1996       C  0.81267543  0.67274424  0.76605755     0.02800
C1997       C  0.83277521  0.65511038  0.76872130    -0.22500
C1998       C  0.82771504  0.62924266  0.76352541     0.12000
S1999       S  0.80170463  0.58928468  0.74958727    -0.06200
C2000       C  0.83348768  0.58636506  0.75744538    -0.09600
C2001       C  0.84480617  0.60928149  0.76454546    -0.26300
S2002       S  0.81497746  0.70514446  0.77037945    -0.03500
C2003       C  0.78318840  0.70775922  0.76233851    -0.16900
C2004       C  0.77170324  0.68457870  0.75681671    -0.14900
H2005       H  0.76486989  0.63270702  0.74752803     0.20500
H2006       H  0.85162607  0.66132211  0.77429803     0.16500
H2007       H  0.86466229  0.61131417  0.76974351     0.19000
H2008       H  0.75203745  0.68255515  0.75092264     0.12400
C2009       C  0.68765777  0.17154686  0.77012651     0.16200
C2010       C  0.66759505  0.15426417  0.77437951    -0.32800
C2011       C  0.67156013  0.12847336  0.76788666     0.20600
C2012       C  0.69456349  0.12022848  0.75777529     0.02800
C2013       C  0.71464950  0.13746662  0.75364067    -0.22500
C2014       C  0.71062212  0.16325229  0.75996152     0.12000
S2015       S  0.68642104  0.20378737  0.77580590    -0.06200
C2016       C  0.71713459  0.20615500  0.76422408    -0.09600
C2017       C  0.72756389  0.18297843  0.75660812    -0.26300
S2018       S  0.69530216  0.08837805  0.75039045    -0.03500
C2019       C  0.66418279  0.08598522  0.76083460    -0.16900
C2020       C  0.65410662  0.10892731  0.76974596    -0.14900
H2021       H  0.64953045  0.16071260  0.78206694     0.20500
H2022       H  0.73254413  0.13111244  0.74548408     0.16500
H2023       H  0.74644548  0.18081189  0.74851259     0.19000
H2024       H  0.63478689  0.11132876  0.77664653     0.12400
C2025       C  0.76540095  0.19465457  0.83590608     0.16200
C2026       C  0.77337177  0.17630474  0.85376248    -0.32800
C2027       C  0.76447740  0.17864350  0.87900094     0.20600
C2028       C  0.74845463  0.19841905  0.88623644     0.02800
C2029       C  0.74023576  0.21658005  0.86832705    -0.22500
C2030       C  0.74900921  0.21416501  0.84308237     0.12000
S2031       S  0.77434137  0.19555268  0.80439745    -0.06200
C2032       C  0.75567666  0.22240608  0.80092639    -0.09600
C2033       C  0.74316218  0.22993913  0.82302166    -0.26300
S2034       S  0.73977232  0.19779254  0.91778340    -0.03500
C2035       C  0.75762209  0.17035582  0.92126002    -0.16900
C2036       C  0.76969489  0.16246536  0.89895734    -0.14900
H2037       H  0.78596652  0.16086442  0.84823288     0.20500
H2038       H  0.72751647  0.23193197  0.87382159     0.16500
H2039       H  0.73065816  0.24635725  0.82432309     0.19000
H2040       H  0.78134942  0.14546129  0.89732305     0.12400
C2041       C  0.65425691  0.25300650  0.71812601     0.16200
C2042       C  0.62867373  0.26007397  0.71418201    -0.32800
C2043       C  0.61480497  0.24696532  0.69538766     0.20600
C2044       C  0.62601278  0.22768947  0.68113619     0.02800
C2045       C  0.65150353  0.22036634  0.68534025    -0.22500
C2046       C  0.66538605  0.23347654  0.70413436     0.12000
S2047       S  0.67441299  0.26720416  0.73937435    -0.06200
C2048       C  0.69811521  0.24655484  0.72956089    -0.09600
C2049       C  0.69058435  0.22956782  0.71070717    -0.26300
S2050       S  0.60663642  0.21545071  0.65796496    -0.03500
C2051       C  0.58300164  0.23634547  0.66756959    -0.16900
C2052       C  0.59004313  0.25181611  0.68791460    -0.14900
H2053       H  0.62007672  0.27543591  0.72502100     0.20500
H2054       H  0.66028041  0.20540962  0.67409292     0.16500
H2055       H  0.70291697  0.21533905  0.70218241     0.19000
H2056       H  0.57817656  0.26674341  0.69590824     0.12400
C2057       C  0.72998984  0.30976046  0.67442096     0.16200
C2058       C  0.72529975  0.32904251  0.65635608    -0.32800
C2059       C  0.73198154  0.32418492  0.63077822     0.20600
C2060       C  0.74274847  0.30114529  0.62347625     0.02800
C2061       C  0.74706281  0.28176566  0.64144069    -0.22500
C2062       C  0.74052421  0.28665196  0.66697604     0.12000
S2063       S  0.72454734  0.31218360  0.70663666    -0.06200
C2064       C  0.73667548  0.28176078  0.70997027    -0.09600
C2065       C  0.74419750  0.27051228  0.68724023    -0.26300
S2066       S  0.75077958  0.29947170  0.59182430    -0.03500
C2067       C  0.73936069  0.33011511  0.58819336    -0.16900
C2068       C  0.72983081  0.34079622  0.61058454    -0.14900
H2069       H  0.71725151  0.34721290  0.66205491     0.20500
H2070       H  0.75563871  0.26380472  0.63584010     0.16500
H2071       H  0.75251092  0.25163665  0.68576975     0.19000
H2072       H  0.72233016  0.36000006  0.61214907     0.12400
C2073       C  0.78181743  0.34499565  0.75159598     0.16200
C2074       C  0.78411008  0.37118763  0.75678436    -0.32800
C2075       C  0.80299506  0.38496893  0.74373436     0.20600
C2076       C  0.81874675  0.37317065  0.72603678     0.02800
C2077       C  0.81599883  0.34704532  0.72030700    -0.22500
C2078       C  0.79726630  0.33317355  0.73363196     0.12000
S2079       S  0.76101992  0.32493552  0.76659158    -0.06200
C2080       C  0.77299319  0.30023248  0.74849568    -0.09600
C2081       C  0.79211599  0.30740642  0.73156144    -0.26300
S2082       S  0.84212201  0.39263941  0.71425065    -0.03500
C2083       C  0.83069867  0.41695265  0.73344978    -0.16900
C2084       C  0.80946350  0.41014373  0.74774829    -0.14900
H2085       H  0.77215800  0.38028242  0.77099186     0.20500
H2086       H  0.82846251  0.33777119  0.70666650     0.16500
H2087       H  0.80164571  0.29451187  0.71852025     0.19000
H2088       H  0.80030080  0.42241664  0.76163222     0.12400
C2089       C  0.53106250  0.85798284  0.80220453     0.16200
C2090       C  0.53552445  0.87556515  0.78252795    -0.32800
C2091       C  0.54666629  0.89896011  0.78926596     0.20600
C2092       C  0.55239341  0.90475485  0.81445376     0.02800
C2093       C  0.54709733  0.88770962  0.83403179    -0.22500
C2094       C  0.53689886  0.86420086  0.82721080     0.12000
S2095       S  0.51991172  0.82748991  0.79838864    -0.06200
C2096       C  0.52396468  0.82337673  0.83073508    -0.09600
C2097       C  0.53290420  0.84460477  0.84348106    -0.26300
S2098       S  0.56960984  0.93169805  0.81867912    -0.03500
C2099       C  0.56929778  0.93536402  0.78619296    -0.16900
C2100       C  0.55591402  0.91699945  0.77284434    -0.14900
H2101       H  0.53180123  0.87072628  0.76281056     0.20500
H2102       H  0.55225326  0.89192195  0.85358371     0.16500
H2103       H  0.53635515  0.84572494  0.86383144     0.19000
H2104       H  0.55541790  0.91546583  0.75224622     0.12400
C2105       C  0.64046735  0.70204091  0.97814037     0.16200
C2106       C  0.62466241  0.72262079  0.97139888    -0.32800
C2107       C  0.60097892  0.71676504  0.96035488     0.20600
C2108       C  0.59307281  0.69168860  0.95747989     0.02800
C2109       C  0.60814119  0.67141087  0.96536898    -0.22500
C2110       C  0.63211770  0.67717546  0.97492364     0.12000
S2111       S  0.67166531  0.70427855  0.98754604    -0.06200
C2112       C  0.67317553  0.67150250  0.98567348    -0.09600
C2113       C  0.65059979  0.65974773  0.97938273    -0.26300
S2114       S  0.56658056  0.68772278  0.93971207    -0.03500
C2115       C  0.56579438  0.72005527  0.93577615    -0.16900
C2116       C  0.58487191  0.73340022  0.94818224    -0.14900
H2117       H  0.63131602  0.74209480  0.97274103     0.20500
H2118       H  0.60237746  0.65187467  0.96200456     0.16500
H2119       H  0.64805380  0.63935301  0.97721841     0.19000
H2120       H  0.58818967  0.75368017  0.94620546     0.12400
C2121       C  0.46130132  0.65240489  0.79038538     0.16200
C2122       C  0.44281011  0.63970108  0.77619096    -0.32800
C2123       C  0.44477238  0.61317025  0.77448123     0.20600
C2124       C  0.46500520  0.59979829  0.78510401     0.02800
C2125       C  0.48397825  0.61262964  0.79875063    -0.22500
C2126       C  0.48124158  0.63910868  0.80165313     0.12000
S2127       S  0.45934121  0.68376404  0.79868101    -0.06200
C2128       C  0.48517119  0.67876502  0.81802135    -0.09600
C2129       C  0.49512256  0.65430200  0.81757205    -0.26300
S2130       S  0.46250767  0.56735159  0.78263710    -0.03500
C2131       C  0.43344587  0.57220253  0.76832734    -0.16900
C2132       C  0.42662702  0.59739776  0.76485715    -0.14900
H2133       H  0.42655544  0.64982635  0.76844573     0.20500
H2134       H  0.49915176  0.60225864  0.80817300     0.16500
H2135       H  0.51034900  0.64757253  0.82979824     0.19000
H2136       H  0.40875802  0.60377546  0.75668311     0.12400
C2137       C  0.52613009  0.61706249  0.92630710     0.16200
C2138       C  0.53230585  0.59104477  0.92844424    -0.32800
C2139       C  0.52228494  0.57751449  0.94928136     0.20600
C2140       C  0.50712231  0.58955808  0.96736617     0.02800
C2141       C  0.50140301  0.61565674  0.96551220    -0.22500
C2142       C  0.51105785  0.62907085  0.94446730     0.12000
S2143       S  0.53461954  0.63622057  0.90137689    -0.06200
C2144       C  0.51752200  0.66067967  0.91539339    -0.09600
C2145       C  0.50620257  0.65416436  0.93842949    -0.26300
S2146       S  0.49565224  0.56977233  0.99046997    -0.03500
C2147       C  0.51158701  0.54500990  0.97584287    -0.16900
C2148       C  0.52500249  0.55181290  0.95409021    -0.14900
H2149       H  0.54380423  0.58160311  0.91408677     0.20500
H2150       H  0.48930607  0.62493197  0.97948581     0.16500
H2151       H  0.49439868  0.66684078  0.94972248     0.19000
H2152       H  0.53576389  0.53865493  0.94232893     0.12400
C2153       C  0.63341416  0.76977571  0.83235640     0.16200
C2154       C  0.65970229  0.77489829  0.83034937    -0.32800
C2155       C  0.67279196  0.76556396  0.80878759     0.20600
C2156       C  0.66019683  0.75153060  0.79028649     0.02800
C2157       C  0.63402860  0.74644047  0.79230066    -0.22500
C2158       C  0.62093110  0.75598780  0.81362888     0.12000
S2159       S  0.61408775  0.77884224  0.85716323    -0.06200
C2160       C  0.58887488  0.76406662  0.84204954    -0.09600
C2161       C  0.59545330  0.75278188  0.81897866    -0.26300
S2162       S  0.67911417  0.74165872  0.76568640    -0.03500
C2163       C  0.70428661  0.75706386  0.77993819    -0.16900
C2164       C  0.69828536  0.76875373  0.80298787    -0.14900
H2165       H  0.66949959  0.78568394  0.84493792     0.20500
H2166       H  0.62426763  0.73550075  0.77779547     0.16500
H2167       H  0.58244239  0.74208017  0.80709468     0.19000
H2168       H  0.71175144  0.77907114  0.81468486     0.12400
C2169       C  0.47899220  0.87544348  0.92807097     0.16200
C2170       C  0.47559253  0.90210378  0.92931885    -0.32800
C2171       C  0.48434254  0.91492362  0.95120161     0.20600
C2172       C  0.49582289  0.90161652  0.97097371     0.02800
C2173       C  0.49917856  0.87498825  0.96972800    -0.22500
C2174       C  0.49057154  0.86219385  0.94780834     0.12000
S2175       S  0.47082444  0.85665978  0.90271817    -0.06200
C2176       C  0.48327616  0.83053503  0.91862453    -0.09600
C2177       C  0.49304316  0.83644258  0.94256322    -0.26300
S2178       S  0.50549115  0.92046334  0.99571103    -0.03500
C2179       C  0.49409416  0.94668610  0.97941647    -0.16900
C2180       C  0.48328602  0.94088269  0.95591367    -0.14900
H2181       H  0.46681328  0.91244015  0.91373617     0.20500
H2182       H  0.50841188  0.86472108  0.98509174     0.16500
H2183       H  0.50235760  0.82285424  0.95503266     0.19000
H2184       H  0.47524415  0.95484744  0.94299214     0.12400
C2185       C  0.21802279  0.83994610  0.75366541     0.16200
C2186       C  0.21677905  0.86635290  0.74872890    -0.32800
C2187       C  0.19450589  0.87957722  0.75585741     0.20600
C2188       C  0.17461464  0.86699985  0.76786491     0.02800
C2189       C  0.17597198  0.84064480  0.77307079    -0.22500
C2190       C  0.19804142  0.82733126  0.76549796     0.12000
S2191       S  0.24275965  0.82043120  0.74515196    -0.06200
C2192       C  0.22614508  0.79484534  0.75748641    -0.09600
C2193       C  0.20257663  0.80139966  0.76779885    -0.26300
S2194       S  0.14890042  0.88606313  0.77417270    -0.03500
C2195       C  0.16472761  0.91137342  0.76015265    -0.16900
C2196       C  0.18900549  0.90505777  0.75140484    -0.14900
H2197       H  0.23228621  0.87604638  0.73916912     0.20500
H2198       H  0.16022765  0.83083610  0.78210899     0.16500
H2199       H  0.18938704  0.78790821  0.77614127     0.19000
H2200       H  0.20170045  0.91819862  0.74181788     0.12400
C2201       C  0.28819116  0.65338971  0.74865362     0.16200
C2202       C  0.29123148  0.62731296  0.75416296    -0.32800
C2203       C  0.31102995  0.61403497  0.74184942     0.20600
C2204       C  0.32718106  0.62624615  0.72485969     0.02800
C2205       C  0.32402533  0.65233455  0.71919668    -0.22500
C2206       C  0.30415742  0.66563194  0.73147689     0.12000
S2207       S  0.26553220  0.67275126  0.76192622    -0.06200
C2208       C  0.27739497  0.69764560  0.74402186    -0.09600
C2209       C  0.29804432  0.69113355  0.72871523    -0.26300
S2210       S  0.35094987  0.60708356  0.71312371    -0.03500
C2211       C  0.33899832  0.58224587  0.73117840    -0.16900
C2212       C  0.31755162  0.58879549  0.74537732    -0.14900
H2213       H  0.27882102  0.61782838  0.76767904     0.20500
H2214       H  0.33670722  0.66191924  0.70601619     0.16500
H2215       H  0.30795618  0.70430631  0.71628950     0.19000
H2216       H  0.30794338  0.57609473  0.75853156     0.12400
C2217       C  0.34513999  0.74642121  0.78398252     0.16200
C2218       C  0.37069484  0.75409101  0.78683618    -0.32800
C2219       C  0.38601834  0.74084707  0.80445774     0.20600
C2220       C  0.37617528  0.72081722  0.81861395     0.02800
C2221       C  0.35063695  0.71298759  0.81561756    -0.22500
C2222       C  0.33529520  0.72627498  0.79798664     0.12000
S2223       S  0.32351971  0.76060931  0.76411103    -0.06200
C2224       C  0.30075487  0.73933079  0.77460184    -0.09600
C2225       C  0.30979686  0.72200670  0.79262408    -0.26300
S2226       S  0.39728890  0.70829959  0.84012773    -0.03500
C2227       C  0.41983135  0.73016676  0.83005290    -0.16900
C2228       C  0.41108235  0.74617065  0.81074266    -0.14900
H2229       H  0.37820965  0.76998657  0.77601034     0.20500
H2230       H  0.34295174  0.69747296  0.82687040     0.16500
H2231       H  0.29829594  0.70737179  0.80152536     0.19000
H2232       H  0.42198404  0.76172197  0.80267277     0.12400
C2233       C  0.18605387  0.54655468  0.40932818     0.16200
C2234       C  0.16595726  0.54016113  0.39329459    -0.32800
C2235       C  0.17214946  0.53155651  0.36888178     0.20600
C2236       C  0.19714929  0.52801982  0.36100204     0.02800
C2237       C  0.21736065  0.53329628  0.37758376    -0.22500
C2238       C  0.21118544  0.54312929  0.40172418     0.12000
S2239       S  0.18222921  0.56311762  0.43686780    -0.06200
C2240       C  0.21474607  0.56564777  0.43820180    -0.09600
C2241       C  0.22787550  0.55362839  0.41870052    -0.26300
S2242       S  0.20030496  0.51956032  0.32959459    -0.03500
C2243       C  0.16770697  0.52193174  0.32720363    -0.16900
C2244       C  0.15526659  0.52796059  0.34968321    -0.14900
H2245       H  0.14637889  0.54377417  0.39881952     0.20500
H2246       H  0.23695778  0.53160981  0.37131438     0.16500
H2247       H  0.24822814  0.55510099  0.41559131     0.19000
H2248       H  0.13482940  0.53019356  0.35174874     0.12400
C2249       C  0.31174832  0.55230460  0.59439423     0.16200
C2250       C  0.33230237  0.54547224  0.60960817    -0.32800
C2251       C  0.32695621  0.53379371  0.63284798     0.20600
C2252       C  0.30233144  0.52811851  0.64053124     0.02800
C2253       C  0.28156473  0.53419211  0.62471599    -0.22500
C2254       C  0.28690102  0.54673795  0.60155777     0.12000
S2255       S  0.31465226  0.57078236  0.56808028    -0.06200
C2256       C  0.28207184  0.57107766  0.56620577    -0.09600
C2257       C  0.26957402  0.55718255  0.58494231    -0.26300
S2258       S  0.30048989  0.51533811  0.67065239    -0.03500
C2259       C  0.33312438  0.51854485  0.67262650    -0.16900
C2260       C  0.34450347  0.52830019  0.65095573    -0.14900
H2261       H  0.35160563  0.55047776  0.60427003     0.20500
H2262       H  0.26217701  0.53053327  0.63074028     0.16500
H2263       H  0.24910810  0.55671971  0.58753844     0.19000
H2264       H  0.36474433  0.53167527  0.64865717     0.12400
C2265       C  0.40102994  0.68612998  0.43586888     0.16200
C2266       C  0.38252179  0.66744994  0.43835486    -0.32800
C2267       C  0.35991857  0.67429070  0.45045108     0.20600
C2268       C  0.35586349  0.69836976  0.46057469     0.02800
C2269       C  0.37465213  0.71724809  0.45825328    -0.22500
C2270       C  0.39726133  0.71054716  0.44541996     0.12000
S2271       S  0.42790368  0.68203796  0.41847658    -0.06200
C2272       C  0.43413849  0.71371644  0.42342966    -0.09600
C2273       C  0.41668913  0.72656240  0.43861272    -0.26300
S2274       S  0.32693773  0.70182480  0.47547497    -0.03500
C2275       C  0.32063189  0.67059821  0.46737631    -0.16900
C2276       C  0.33982072  0.65860605  0.45386848    -0.14900
H2277       H  0.38526275  0.64857992  0.43038555     0.20500
H2278       H  0.37156794  0.73633768  0.46550282     0.16500
H2279       H  0.41682240  0.74691319  0.44212709     0.19000
H2280       H  0.33965624  0.63884358  0.44782275     0.12400
C2281       C  0.36813419  0.54945350  0.50622279     0.16200
C2282       C  0.38558961  0.52928360  0.50322568    -0.32800
C2283       C  0.41155714  0.53434867  0.50745724     0.20600
C2284       C  0.41980207  0.55835420  0.51472051     0.02800
C2285       C  0.40232105  0.57847357  0.51798303    -0.22500
C2286       C  0.37638164  0.57347912  0.51341411     0.12000
S2287       S  0.33598597  0.54758747  0.50063370    -0.06200
C2288       C  0.33353340  0.57957172  0.50794336    -0.09600
C2289       C  0.35664659  0.59076732  0.51450971    -0.26300
S2290       S  0.45221685  0.56077541  0.51789163    -0.03500
C2291       C  0.45480022  0.52924101  0.50872483    -0.16900
C2292       C  0.43150487  0.51757606  0.50421241    -0.14900
H2293       H  0.37926455  0.51056396  0.49727828     0.20500
H2294       H  0.40872501  0.59735532  0.52331112     0.16500
H2295       H  0.35898456  0.61071285  0.51932730     0.19000
H2296       H  0.42938446  0.49798576  0.49804007     0.12400
C2297       C  0.12794542  0.55420463  0.49818259     0.16200
C2298       C  0.10989963  0.53512626  0.50318815    -0.32800
C2299       C  0.08500069  0.53880057  0.49407505     0.20600
C2300       C  0.07833651  0.56034846  0.48023999     0.02800
C2301       C  0.09644517  0.57941387  0.47513345    -0.22500
C2302       C  0.12129898  0.57590993  0.48459909     0.12000
S2303       S  0.15892397  0.55369691  0.50837124    -0.06200
C2304       C  0.16304671  0.58320652  0.49445737    -0.09600
C2305       C  0.14133796  0.59264829  0.48246973    -0.26300
S2306       S  0.04681651  0.56147118  0.47163960    -0.03500
C2307       C  0.04259985  0.53282279  0.48722734    -0.16900
C2308       C  0.06459873  0.52296794  0.49807196    -0.14900
H2309       H  0.11493935  0.51832368  0.51412450     0.20500
H2310       H  0.09127019  0.59646199  0.46465396     0.16500
H2311       H  0.14023164  0.61090346  0.47284647     0.19000
H2312       H  0.06539494  0.50541982  0.50896266     0.12400
C2313       C  0.24429595  0.69833590  0.61869298     0.16200
C2314       C  0.24667428  0.71817507  0.63658560    -0.32800
C2315       C  0.24197534  0.71247137  0.66244197     0.20600
C2316       C  0.23505560  0.68817005  0.67017635     0.02800
C2317       C  0.23221679  0.66850437  0.65226461    -0.22500
C2318       C  0.23706437  0.67415824  0.62648488     0.12000
S2319       S  0.25060599  0.70068745  0.58656311    -0.06200
C2320       C  0.24324059  0.66875495  0.58362498    -0.09600
C2321       C  0.23624845  0.65728741  0.60652901    -0.26300
S2322       S  0.23175414  0.68474295  0.70255127    -0.03500
C2323       C  0.23985927  0.71642089  0.70580557    -0.16900
C2324       C  0.24447895  0.72878338  0.68279070    -0.14900
H2325       H  0.25250089  0.73709183  0.63070077     0.20500
H2326       H  0.22701460  0.64942876  0.65823423     0.16500
H2327       H  0.23130742  0.63734251  0.60859944     0.19000
H2328       H  0.25027591  0.74853383  0.68117389     0.12400
C2329       C  0.33168808  0.76630798  0.30618463     0.16200
C2330       C  0.34918648  0.77188453  0.32566141    -0.32800
C2331       C  0.37482622  0.76495078  0.32180961     0.20600
C2332       C  0.38278133  0.75331246  0.29942187     0.02800
C2333       C  0.36532103  0.74783009  0.27992869    -0.22500
C2334       C  0.33965397  0.75443856  0.28392078     0.12000
S2335       S  0.29957761  0.77237498  0.30738603    -0.06200
C2336       C  0.29682934  0.75832265  0.27779778    -0.09600
C2337       C  0.31976150  0.74989781  0.26758234    -0.26300
S2338       S  0.41453603  0.74574280  0.29874375    -0.03500
C2339       C  0.41716913  0.75803317  0.32912019    -0.16900
C2340       C  0.39446540  0.76770920  0.33890466    -0.14900
H2341       H  0.34301364  0.78084765  0.34323440     0.20500
H2342       H  0.37140657  0.73841336  0.26256121     0.16500
H2343       H  0.32165973  0.74060806  0.24922156     0.19000
H2344       H  0.39231166  0.77578745  0.35780169     0.12400
C2345       C  0.28606553  0.84154445  0.24637307     0.16200
C2346       C  0.28692250  0.86787046  0.25138846    -0.32800
C2347       C  0.30840796  0.88151893  0.24312407     0.20600
C2348       C  0.32827715  0.86938257  0.23054782     0.02800
C2349       C  0.32745348  0.84297768  0.22555152    -0.22500
C2350       C  0.30585966  0.82931549  0.23373072     0.12000
S2351       S  0.26160225  0.82188704  0.25491990    -0.06200
C2352       C  0.27795000  0.79679912  0.24130293    -0.09600
C2353       C  0.30135492  0.80349219  0.23080620    -0.26300
S2354       S  0.35303591  0.88918578  0.22294634    -0.03500
C2355       C  0.33648234  0.91418922  0.23675563    -0.16900
C2356       C  0.31291637  0.90719687  0.24662701    -0.14900
H2357       H  0.27148537  0.87730756  0.26139673     0.20500
H2358       H  0.34303538  0.83348524  0.21583150     0.16500
H2359       H  0.31431041  0.79022949  0.22166675     0.19000
H2360       H  0.30013091  0.92001635  0.25661535     0.12400
C2361       C  0.19067337  0.67005005  0.26443237     0.16200
C2362       C  0.17034538  0.65312484  0.26902432    -0.32800
C2363       C  0.17469621  0.62681868  0.26526051     0.20600
C2364       C  0.19822884  0.61779526  0.25727538     0.02800
C2365       C  0.21853534  0.63467971  0.25282203    -0.22500
C2366       C  0.21419574  0.66091307  0.25653421     0.12000
S2367       S  0.18931820  0.70270096  0.26720343    -0.06200
C2368       C  0.22079270  0.70400936  0.25760976    -0.09600
C2369       C  0.23145175  0.68024661  0.25261481    -0.26300
S2370       S  0.19934013  0.58541518  0.25259686    -0.03500
C2371       C  0.16772377  0.58374172  0.26151074    -0.16900
C2372       C  0.15719803  0.60737984  0.26787500    -0.14900
H2373       H  0.15185443  0.66017425  0.27497278     0.20500
H2374       H  0.23688221  0.62768486  0.24637971     0.16500
H2375       H  0.25082269  0.67733813  0.24605896     0.19000
H2376       H  0.13745923  0.61033258  0.27319908     0.12400
C2377       C  0.26631970  0.66981787  0.36727221     0.16200
C2378       C  0.27165879  0.67170442  0.34096732    -0.32800
C2379       C  0.26416300  0.69409195  0.32812901     0.20600
C2380       C  0.25193201  0.71369824  0.34104197     0.02800
C2381       C  0.24688677  0.71193522  0.36736620    -0.22500
C2382       C  0.25430052  0.68954441  0.38018112     0.12000
S2383       S  0.27269383  0.64379676  0.38597801    -0.06200
C2384       C  0.25903656  0.65951751  0.41159484    -0.09600
C2385       C  0.25021226  0.68384400  0.40561048    -0.26300
S2386       S  0.24343168  0.73883396  0.32206251    -0.03500
C2387       C  0.25678113  0.72311526  0.29639703    -0.16900
C2388       C  0.26710179  0.69941574  0.30244773    -0.14900
H2389       H  0.28090673  0.65621469  0.33087296     0.20500
H2390       H  0.23721259  0.72723299  0.37735598     0.16500
H2391       H  0.24063691  0.69640407  0.41894911     0.19000
H2392       H  0.27604085  0.68673153  0.28880262     0.12400
C2393       C  0.90470446  0.69182187  0.05078633     0.16200
C2394       C  0.88919479  0.67194069  0.04300511    -0.32800
C2395       C  0.86427334  0.67802730  0.03633065     0.20600
C2396       C  0.85498232  0.70280795  0.03653328     0.02800
C2397       C  0.87077793  0.72297252  0.04393853    -0.22500
C2398       C  0.89577847  0.71677430  0.05124945     0.12000
S2399       S  0.93411331  0.68738464  0.06334241    -0.06200
C2400       C  0.93454351  0.71942138  0.06933453    -0.09600
C2401       C  0.91319565  0.73291348  0.06171496    -0.26300
S2402       S  0.82345564  0.70538543  0.02834058    -0.03500
C2403       C  0.82327874  0.67270847  0.02542197    -0.16900
C2404       C  0.84629254  0.66085427  0.03006471    -0.14900
H2405       H  0.89588932  0.65237953  0.04329613     0.20500
H2406       H  0.86367904  0.74235183  0.04491035     0.16500
H2407       H  0.90972500  0.75287618  0.06578508     0.19000
H2408       H  0.84973797  0.64048600  0.02896254     0.12400
C2409       C  0.05336127  0.66014933  0.20601342     0.16200
C2410       C  0.07359088  0.64477544  0.21349920    -0.32800
C2411       C  0.06813544  0.61941267  0.21903662     0.20600
C2412       C  0.04353232  0.60980183  0.21856588     0.02800
C2413       C  0.02303560  0.62550217  0.21184826    -0.22500
C2414       C  0.02866290  0.65074514  0.20511448     0.12000
S2415       S  0.05732116  0.68935383  0.19282902    -0.06200
C2416       C  0.02560199  0.68869834  0.18539113    -0.09600
C2417       C  0.01240088  0.66749343  0.19367000    -0.26300
S2418       S  0.04153258  0.57785291  0.22473973    -0.03500
C2419       C  0.07419485  0.57782039  0.22696887    -0.16900
C2420       C  0.08574043  0.60116698  0.22373510    -0.14900
H2421       H  0.09300196  0.65174957  0.21314049     0.20500
H2422       H  0.00390736  0.61798153  0.21030626     0.16500
H2423       H  0.99287265  0.66316973  0.18863350     0.19000
H2424       H  0.10608066  0.60458477  0.22466750     0.12400
C2425       C  0.98090936  0.61770077  0.07829145     0.16200
C2426       C  0.97629499  0.59131660  0.07659544    -0.32800
C2427       C  0.98306556  0.57878537  0.05384090     0.20600
C2428       C  0.99347685  0.59213221  0.03350541     0.02800
C2429       C  0.99793247  0.61852049  0.03514133    -0.22500
C2430       C  0.99165399  0.63093778  0.05807216     0.12000
S2431       S  0.97534768  0.63605555  0.10470829    -0.06200
C2432       C  0.98803422  0.66183621  0.08861140    -0.09600
C2433       C  0.99578722  0.65625041  0.06385281    -0.26300
S2434       S  0.00099689  0.57351538  0.00781444    -0.03500
C2435       C  0.99046308  0.54731872  0.02466695    -0.16900
C2436       C  0.98127978  0.55298862  0.04889253    -0.14900
H2437       H  0.96830898  0.58090327  0.09255388     0.20500
H2438       H  0.00647208  0.62882364  0.01939713     0.16500
H2439       H  0.00444807  0.66985225  0.05094684     0.19000
H2440       H  0.97407026  0.53898411  0.06224225     0.12400
C2441       C  0.86915269  0.76858897  0.17123423     0.16200
C2442       C  0.84261001  0.77220518  0.17346048    -0.32800
C2443       C  0.83056433  0.76358009  0.19588484     0.20600
C2444       C  0.84444391  0.75179440  0.21507825     0.02800
C2445       C  0.87090457  0.74843705  0.21295963    -0.22500
C2446       C  0.88292414  0.75711298  0.19066636     0.12000
S2447       S  0.88725194  0.77650512  0.14518307    -0.06200
C2448       C  0.91368286  0.76429955  0.16065626    -0.09600
C2449       C  0.90841664  0.75477979  0.18482567    -0.26300
S2450       S  0.82659950  0.74197837  0.24044402    -0.03500
C2451       C  0.80009497  0.75445885  0.22559639    -0.16900
C2452       C  0.80494005  0.76518119  0.20181871    -0.14900
H2453       H  0.83180402  0.78111005  0.15827819     0.20500
H2454       H  0.88164909  0.73919082  0.22798817     0.16500
H2455       H  0.92233710  0.74574568  0.19712447     0.19000
H2456       H  0.79058726  0.77371693  0.18968318     0.12400
C2457       C  0.17012990  0.73181451  0.19124355     0.16200
C2458       C  0.15158770  0.72384431  0.17361512    -0.32800
C2459       C  0.12673758  0.73380114  0.17613866     0.20600
C2460       C  0.12058041  0.75081254  0.19542916     0.02800
C2461       C  0.13912047  0.75890092  0.21290436    -0.22500
C2462       C  0.16392826  0.74907507  0.21031041     0.12000
S2463       S  0.20136188  0.72187217  0.19180960    -0.06200
C2464       C  0.20593729  0.74120409  0.21798167    -0.09600
C2465       C  0.18441598  0.75463775  0.22553051    -0.26300
S2466       S  0.08947242  0.76084538  0.19515064    -0.03500
C2467       C  0.08460645  0.74223730  0.16849231    -0.16900
C2468       C  0.10620028  0.72886996  0.16060528    -0.14900
H2469       H  0.15632504  0.71050675  0.15855675     0.20500
H2470       H  0.13442049  0.77234565  0.22788281     0.16500
H2471       H  0.18380255  0.76762105  0.24158791     0.19000
H2472       H  0.10694161  0.71650956  0.14407156     0.12400
C2473       C  0.10433960  0.78271798  0.04334501     0.16200
C2474       C  0.12711473  0.78303593  0.02915130    -0.32800
C2475       C  0.14236884  0.80497984  0.03102714     0.20600
C2476       C  0.13480578  0.82554163  0.04592843     0.02800
C2477       C  0.11192779  0.82558535  0.05913643    -0.22500
C2478       C  0.09714935  0.80376535  0.05770193     0.12000
S2479       S  0.08495483  0.75683153  0.04758638    -0.06200
C2480       C  0.06800680  0.77479280  0.06935643    -0.09600
C2481       C  0.07619686  0.79952587  0.07210369    -0.26300
S2482       S  0.15554657  0.84988721  0.04730774    -0.03500
C2483       C  0.17489487  0.83286144  0.02703520    -0.16900
C2484       C  0.16569836  0.80915797  0.01980386    -0.14900
H2485       H  0.13318690  0.76661363  0.01816967     0.20500
H2486       H  0.10641221  0.84158435  0.07103664     0.16500
H2487       H  0.06867414  0.81302492  0.08586613     0.19000
H2488       H  0.17520213  0.79612549  0.00687431     0.12400
C2489       C  0.34453802  0.79038737  0.94273084     0.16200
C2490       C  0.35956620  0.78132807  0.92286811    -0.32800
C2491       C  0.38397745  0.77293166  0.92896869     0.20600
C2492       C  0.39294974  0.77227879  0.95383931     0.02800
C2493       C  0.37736646  0.78039887  0.97403778    -0.22500
C2494       C  0.35310906  0.78990583  0.96777149     0.12000
S2495       S  0.31688106  0.80640640  0.93805873    -0.06200
C2496       C  0.31655874  0.81255761  0.97010978    -0.09600
C2497       C  0.33669559  0.80238068  0.98380249    -0.26300
S2498       S  0.42439449  0.76373146  0.95637332    -0.03500
C2499       C  0.42512252  0.76225118  0.92358260    -0.16900
C2500       C  0.40220182  0.76702428  0.91168969    -0.14900
H2501       H  0.35325788  0.78265216  0.90324349     0.20500
H2502       H  0.38442550  0.78094818  0.99342102     0.16500
H2503       H  0.34035541  0.80608665  0.00378522     0.19000
H2504       H  0.39925423  0.76713669  0.89122516     0.12400
C2505       C  0.29527233  0.95086335  0.09941481     0.16200
C2506       C  0.29557218  0.96875973  0.11924554    -0.32800
C2507       C  0.31059369  0.96297039  0.14059024     0.20600
C2508       C  0.32477983  0.94060983  0.14184174     0.02800
C2509       C  0.32496412  0.92321678  0.12194059    -0.22500
C2510       C  0.30993932  0.92886257  0.10089915     0.12000
S2511       S  0.27589106  0.95214811  0.07331378    -0.06200
C2512       C  0.28743283  0.92246904  0.06523168    -0.09600
C2513       C  0.30608863  0.91293980  0.08105225    -0.26300
S2514       S  0.34252180  0.93702836  0.16840082    -0.03500
C2515       C  0.33141699  0.96632503  0.17786896    -0.16900
C2516       C  0.31416533  0.97791514  0.16163377    -0.14900
H2517       H  0.28423197  0.98601727  0.11835277     0.20500
H2518       H  0.33602605  0.90577194  0.12300104     0.16500
H2519       H  0.31471302  0.89420159  0.07941737     0.19000
H2520       H  0.30641486  0.99692353  0.16407803     0.12400
C2521       C  0.20396148  0.94091100  0.84214109     0.16200
C2522       C  0.21232512  0.92095183  0.85735378    -0.32800
C2523       C  0.22115233  0.92704053  0.88158100     0.20600
C2524       C  0.22266914  0.95193608  0.89035744     0.02800
C2525       C  0.21496420  0.97223454  0.87466959    -0.22500
C2526       C  0.20525286  0.96601230  0.85046590     0.12000
S2527       S  0.18828165  0.93641717  0.81430638    -0.06200
C2528       C  0.18327009  0.96861783  0.81362346    -0.09600
C2529       C  0.19360650  0.98225149  0.83370522    -0.26300
S2530       S  0.23236922  0.95439346  0.92152308    -0.03500
C2531       C  0.23336020  0.92155722  0.92228220    -0.16900
C2532       C  0.22730863  0.90974060  0.89963560    -0.14900
H2533       H  0.21050403  0.90132487  0.85119199     0.20500
H2534       H  0.21519496  0.99171887  0.88148277     0.16500
H2535       H  0.19062677  0.00243030  0.83701263     0.19000
H2536       H  0.22678164  0.88928418  0.89669453     0.12400
C2537       C  0.25550181  0.79559488  0.88158947     0.16200
C2538       C  0.24930093  0.77685124  0.86354287    -0.32800
C2539       C  0.25765679  0.78049974  0.83830740     0.20600
C2540       C  0.27196182  0.80159664  0.83135876     0.02800
C2541       C  0.27845234  0.82013831  0.84947215    -0.22500
C2542       C  0.26969509  0.81673511  0.87458457     0.12000
S2543       S  0.24567051  0.79575655  0.91280371    -0.06200
C2544       C  0.26059029  0.82478025  0.91635386    -0.09600
C2545       C  0.27272609  0.83344421  0.89442100    -0.26300
S2546       S  0.27940282  0.80298648  0.79954393    -0.03500
C2547       C  0.26272956  0.77505576  0.79553433    -0.16900
C2548       C  0.25242854  0.76516088  0.81781745    -0.14900
H2549       H  0.23786944  0.76048373  0.86878067     0.20500
H2550       H  0.28928118  0.83686306  0.84407955     0.16500
H2551       H  0.28267272  0.85146015  0.89285841     0.19000
H2552       H  0.24124651  0.74784694  0.81879783     0.12400
C2553       C  0.25245381  0.78414564  0.15485400     0.16200
C2554       C  0.25901269  0.78649039  0.12893606    -0.32800
C2555       C  0.24608461  0.80487316  0.11429598     0.20600
C2556       C  0.22738954  0.82023197  0.12502313     0.02800
C2557       C  0.22043613  0.81750615  0.15085359    -0.22500
C2558       C  0.23345587  0.79917059  0.16555320     0.12000
S2559       S  0.26661016  0.76362201  0.17587783    -0.06200
C2560       C  0.24663935  0.77508141  0.19938778    -0.09600
C2561       C  0.22990717  0.79395032  0.19116040    -0.26300
S2562       S  0.21572039  0.84301096  0.10468260    -0.03500
C2563       C  0.23618393  0.83175732  0.08141501    -0.16900
C2564       C  0.25089979  0.81109331  0.08919166    -0.14900
H2565       H  0.27396433  0.77484203  0.12066766     0.20500
H2566       H  0.20593689  0.82959601  0.15928251     0.16500
H2567       H  0.21593850  0.80324841  0.20322952     0.19000
H2568       H  0.26552987  0.80216327  0.07762333     0.12400
C2569       C  0.38186894  0.92039058  0.02275564     0.16200
C2570       C  0.40759523  0.92252916  0.02995455    -0.32800
C2571       C  0.42143315  0.94355748  0.02078112     0.20600
C2572       C  0.40996826  0.96180168  0.00540114     0.02800
C2573       C  0.38416315  0.95988311  0.99856717    -0.22500
C2574       C  0.37043429  0.93868629  0.00744049     0.12000
S2575       S  0.36247707  0.89528076  0.03012328    -0.06200
C2576       C  0.33871690  0.90933833  0.01215402    -0.09600
C2577       C  0.34561093  0.93259136  0.00149022    -0.26300
S2578       S  0.43012605  0.98519139  0.99516461    -0.03500
C2579       C  0.45429152  0.97040328  0.01180500    -0.16900
C2580       C  0.44696071  0.94843658  0.02461151    -0.14900
H2581       H  0.41661466  0.90804916  0.04161632     0.20500
H2582       H  0.37535481  0.97396019  0.98626621     0.16500
H2583       H  0.33350288  0.94388970  0.98914080     0.19000
H2584       H  0.45968716  0.93651056  0.03567364     0.12400
C2585       C  0.04319663  0.90670688  0.69921471     0.16200
C2586       C  0.03269376  0.89276316  0.67930948    -0.32800
C2587       C  0.02775750  0.86705815  0.68381810     0.20600
C2588       C  0.03171947  0.85574268  0.70742650     0.02800
C2589       C  0.04142238  0.87002883  0.72776383    -0.22500
C2590       C  0.04755242  0.89561625  0.72288158     0.12000
S2591       S  0.05553168  0.93634737  0.69547757    -0.06200
C2592       C  0.06701699  0.93375386  0.72590470    -0.09600
C2593       C  0.06103802  0.91139418  0.73853898    -0.26300
S2594       S  0.02652253  0.82351139  0.70790155    -0.03500
C2595       C  0.02011778  0.82569019  0.67582561    -0.16900
C2596       C  0.02106101  0.84994228  0.66572394    -0.14900
H2597       H  0.03035249  0.90106485  0.66052511     0.20500
H2598       H  0.04567750  0.86118891  0.74594254     0.16500
H2599       H  0.06836795  0.90600839  0.75708883     0.19000
H2600       H  0.01788048  0.85464957  0.64583833     0.12400
C2601       C  0.96965108  0.64271566  0.70054545     0.16200
C2602       C  0.96458383  0.62591944  0.72082698    -0.32800
C2603       C  0.95355431  0.60225583  0.71473427     0.20600
C2604       C  0.94870736  0.59549647  0.68961145     0.02800
C2605       C  0.95454362  0.61174893  0.66952823    -0.22500
C2606       C  0.96446306  0.63553316  0.67564780     0.12000
S2607       S  0.98060136  0.67338933  0.70334802    -0.06200
C2608       C  0.97712313  0.67626263  0.67075718    -0.09600
C2609       C  0.96864735  0.65452728  0.65866719    -0.26300
S2610       S  0.93166717  0.56846299  0.68581856    -0.03500
C2611       C  0.93074271  0.56586671  0.71838057    -0.16900
C2612       C  0.94358264  0.58482848  0.73152757    -0.14900
H2613       H  0.96771123  0.63157212  0.74043235     0.20500
H2614       H  0.94991541  0.60674987  0.65002904     0.16500
H2615       H  0.96559858  0.65267100  0.63830835     0.19000
H2616       H  0.94323603  0.58718053  0.75205027     0.12400
C2617       C  0.11076565  0.72231970  0.54719830     0.16200
C2618       C  0.12693028  0.71595282  0.52680622    -0.32800
C2619       C  0.15086579  0.70551446  0.53289599     0.20600
C2620       C  0.15855263  0.70248984  0.55805196     0.02800
C2621       C  0.14295047  0.70976859  0.57819955    -0.22500
C2622       C  0.11885038  0.71905098  0.57216267     0.12000
S2623       S  0.07973534  0.73225873  0.54454188    -0.06200
C2624       C  0.07796099  0.73093970  0.57733292    -0.09600
C2625       C  0.10025073  0.72396579  0.58937536    -0.26300
S2626       S  0.18568080  0.68547407  0.56211506    -0.03500
C2627       C  0.18691661  0.68212418  0.52965029    -0.16900
C2628       C  0.16759665  0.69421739  0.51628997    -0.14900
H2629       H  0.12054655  0.71747656  0.50723647     0.20500
H2630       H  0.14859601  0.70649543  0.59780149     0.16500
H2631       H  0.10264777  0.72218055  0.60983379     0.19000
H2632       H  0.16444346  0.69233864  0.49596489     0.12400
C2633       C  0.85641584  0.79775344  0.53158771     0.16200
C2634       C  0.87265477  0.77754383  0.53830130    -0.32800
C2635       C  0.89685125  0.78391339  0.54781260     0.20600
C2636       C  0.90462079  0.80912177  0.54985806     0.02800
C2637       C  0.88888091  0.82904635  0.54237823    -0.22500
C2638       C  0.86466033  0.82275981  0.53375473     0.12000
S2639       S  0.82522026  0.79492398  0.52230313    -0.06200
C2640       C  0.82368763  0.82774262  0.52230423    -0.09600
C2641       C  0.84615338  0.83985712  0.52838560    -0.26300
S2642       S  0.93251314  0.81361137  0.56534327    -0.03500
C2643       C  0.93409927  0.78123845  0.56907347    -0.16900
C2644       C  0.91414669  0.76759983  0.55857888    -0.14900
H2645       H  0.86626794  0.75794436  0.53749353     0.20500
H2646       H  0.89465794  0.84872634  0.54473965     0.16500
H2647       H  0.84873195  0.86034086  0.52934902     0.19000
H2648       H  0.91131974  0.74727081  0.56086833     0.12400
C2649       C  0.12527206  0.77465296  0.68604556     0.16200
C2650       C  0.15001602  0.78354860  0.69153941    -0.32800
C2651       C  0.16625607  0.76775546  0.70602916     0.20600
C2652       C  0.15805141  0.74417811  0.71468196     0.02800
C2653       C  0.13322110  0.73545030  0.70951989    -0.22500
C2654       C  0.11699967  0.75123435  0.69505925     0.12000
S2655       S  0.10348658  0.78995839  0.66705034    -0.06200
C2656       C  0.08272413  0.76480989  0.67154155    -0.09600
C2657       C  0.09253633  0.74562626  0.68708910    -0.26300
S2658       S  0.18071262  0.72745204  0.73113375    -0.03500
C2659       C  0.20172247  0.75238938  0.72654298    -0.16900
C2660       C  0.19126785  0.77264978  0.71283989    -0.14900
H2661       H  0.15650362  0.80178738  0.68437032     0.20500
H2662       H  0.12695636  0.71693037  0.71615695     0.16500
H2663       H  0.08287733  0.72784220  0.69111811     0.19000
H2664       H  0.20148500  0.78985253  0.70783095     0.12400
C2665       C  0.00970155  0.63668103  0.54794694     0.16200
C2666       C  0.00283962  0.61941932  0.52868824    -0.32800
C2667       C  0.00759260  0.59336456  0.53287719     0.20600
C2668       C  0.01927647  0.58480198  0.55498342     0.02800
C2669       C  0.02643093  0.60214021  0.57417051    -0.22500
C2670       C  0.02111157  0.62821342  0.57023703     0.12000
S2671       S  0.00335879  0.66872862  0.54742671    -0.06200
C2672       C  0.01571148  0.67089442  0.57782044    -0.09600
C2673       C  0.02474249  0.64778668  0.58738424    -0.26300
S2674       S  0.02282708  0.55224464  0.55642832    -0.03500
C2675       C  0.00791831  0.55020564  0.52718406    -0.16900
C2676       C  0.00105605  0.57365692  0.51695456    -0.14900
H2677       H  0.99345960  0.62594496  0.51148029     0.20500
H2678       H  0.03510407  0.59552293  0.59170861     0.16500
H2679       H  0.03237338  0.64519589  0.60639839     0.19000
H2680       H  0.99159490  0.57608419  0.49876122     0.12400
C2681       C  0.87189850  0.73024713  0.67551368     0.16200
C2682       C  0.84610273  0.72340063  0.67883966    -0.32800
C2683       C  0.83212223  0.73561145  0.69834543     0.20600
C2684       C  0.84345538  0.75386051  0.71371117     0.02800
C2685       C  0.86918942  0.76054263  0.71048947    -0.22500
C2686       C  0.88316265  0.74828013  0.69114753     0.12000
S2687       S  0.89186891  0.71867372  0.65227910    -0.06200
C2688       C  0.91576777  0.73815992  0.66383947    -0.09600
C2689       C  0.90829147  0.75271032  0.68474047    -0.26300
S2690       S  0.82357168  0.76674347  0.73612746    -0.03500
C2691       C  0.79959292  0.74731809  0.72503545    -0.16900
C2692       C  0.80682060  0.73171450  0.70478111    -0.14900
H2693       H  0.83727685  0.70933106  0.66662250     0.20500
H2694       H  0.87792969  0.77483673  0.72251102     0.16500
H2695       H  0.92027943  0.76662566  0.69409822     0.19000
H2696       H  0.79432833  0.71825342  0.69543824     0.12400
C2697       C  0.90110970  0.96985290  0.50280633     0.16200
C2698       C  0.87532794  0.96648223  0.50951106    -0.32800
C2699       C  0.86127740  0.94772450  0.49651133     0.20600
C2700       C  0.87249167  0.93296839  0.47763580     0.02800
C2701       C  0.89822748  0.93656161  0.47068637    -0.22500
C2702       C  0.91231588  0.95531509  0.48373453     0.12000
S2703       S  0.92142702  0.99102220  0.51696835    -0.06200
C2704       C  0.94539470  0.98045415  0.49699627    -0.09600
C2705       C  0.93776422  0.96138057  0.48021495    -0.26300
S2706       S  0.85273010  0.91003838  0.46543732    -0.03500
C2707       C  0.82892024  0.92041055  0.48582623    -0.16900
C2708       C  0.83627290  0.94080933  0.50111990    -0.14900
H2709       H  0.86669703  0.97774713  0.52454129     0.20500
H2710       H  0.90701600  0.92490103  0.45605826     0.16500
H2711       H  0.95018223  0.95237756  0.46636355     0.19000
H2712       H  0.82439956  0.94928067  0.51577189     0.12400
C2713       C  0.08839838  0.03905213  0.50588093     0.16200
C2714       C  0.11490806  0.03999793  0.50169376    -0.32800
C2715       C  0.12759676  0.06313813  0.50639244     0.20600
C2716       C  0.11437561  0.08434511  0.51508547     0.02800
C2717       C  0.08782879  0.08339401  0.51932588    -0.22500
C2718       C  0.07511526  0.06025910  0.51447889     0.12000
S2719       S  0.06961885  0.01301332  0.50043017    -0.06200
C2720       C  0.04341573  0.03055545  0.51000993    -0.09600
C2721       C  0.04926073  0.05554528  0.51685782    -0.26300
S2722       S  0.13312851  0.11071319  0.51916594    -0.03500
C2723       C  0.15918024  0.09321700  0.50883318    -0.16900
C2724       C  0.15325567  0.06807474  0.50275274    -0.14900
H2725       H  0.12516262  0.02344334  0.49475790     0.20500
H2726       H  0.07749883  0.10006049  0.52586835     0.16500
H2727       H  0.03533063  0.06956384  0.52290147     0.19000
H2728       H  0.16689204  0.05424463  0.49567467     0.12400
C2729       C  0.05131330  0.98301253  0.58354060     0.16200
C2730       C  0.06990597  0.97505164  0.60114456    -0.32800
C2731       C  0.06777746  0.98374088  0.62647946     0.20600
C2732       C  0.04781905  0.99935525  0.63407748     0.02800
C2733       C  0.02928154  0.00737472  0.61646923    -0.22500
C2734       C  0.03164278  0.99903274  0.59106837     0.12000
S2735       S  0.05063723  0.97498724  0.55179912    -0.06200
C2736       C  0.02400637  0.99401540  0.54851587    -0.09600
C2737       C  0.01600553  0.00544026  0.57104977    -0.26300
S2738       S  0.04894369  0.00818724  0.66555837    -0.03500
C2739       C  0.07687345  0.99102772  0.66854086    -0.16900
C2740       C  0.08449314  0.97895875  0.64611969    -0.14900
H2741       H  0.08555173  0.96287556  0.59527464     0.20500
H2742       H  0.01387802  0.01990595  0.62223571     0.16500
H2743       H  0.99959741  0.01792061  0.57260428     0.19000
H2744       H  0.10173490  0.96773027  0.64413181     0.12400
C2745       C  0.99882214  0.09856661  0.46864824     0.16200
C2746       C  0.99332746  0.12471448  0.46607554    -0.32800
C2747       C  0.00656605  0.13859706  0.44734375     0.20600
C2748       C  0.02457817  0.12690251  0.43188212     0.02800
C2749       C  0.03047743  0.10080453  0.43481171    -0.22500
C2750       C  0.01711328  0.08686433  0.45349836     0.12000
S2751       S  0.98389300  0.07839786  0.48945026    -0.06200
C2752       C  0.00253247  0.05383026  0.47794815    -0.09600
C2753       C  0.01947032  0.06112228  0.45886015    -0.26300
S2754       S  0.03669967  0.14650402  0.40870626    -0.03500
C2755       C  0.01737832  0.17081112  0.41993439    -0.16900
C2756       C  0.00263901  0.16382579  0.44085714    -0.14900
H2757       H  0.97887372  0.13372749  0.47779519     0.20500
H2758       H  0.04439411  0.09161871  0.42259016     0.16500
H2759       H  0.03262735  0.04828962  0.44940029     0.19000
H2760       H  0.98854394  0.17604124  0.44978182     0.12400
C2761       C  0.99193949  0.87164291  0.55066828     0.16200
C2762       C  0.99565362  0.88963538  0.53105539    -0.32800
C2763       C  0.98884032  0.91520750  0.53586913     0.20600
C2764       C  0.97856910  0.92255297  0.55911624     0.02800
C2765       C  0.97455367  0.90449828  0.57860227    -0.22500
C2766       C  0.98156934  0.87896608  0.57386816     0.12000
S2767       S  0.00027622  0.83995943  0.54921797    -0.06200
C2768       C  0.98971144  0.83641149  0.58024910    -0.09600
C2769       C  0.98013669  0.85888094  0.59079578    -0.26300
S2770       S  0.97279298  0.95473678  0.56158727    -0.03500
C2771       C  0.98443948  0.95840558  0.53100325    -0.16900
C2772       C  0.99207938  0.93565538  0.51965931    -0.14900
H2773       H  0.00401132  0.88404297  0.51299400     0.20500
H2774       H  0.96679760  0.91020913  0.59689150     0.16500
H2775       H  0.97305197  0.86059211  0.61013976     0.19000
H2776       H  0.00033655  0.93431525  0.50075592     0.12400
C2777       C  0.93789580  0.09853498  0.31583467     0.16200
C2778       C  0.93975707  0.11756985  0.33408749    -0.32800
C2779       C  0.95303463  0.13946778  0.32737274     0.20600
C2780       C  0.96483034  0.14230283  0.30386511     0.02800
C2781       C  0.96323684  0.12292925  0.28549088    -0.22500
C2782       C  0.94922754  0.10106226  0.29200923     0.12000
S2783       S  0.91920674  0.07261360  0.31950872    -0.06200
C2784       C  0.92600441  0.06515066  0.28839792    -0.09600
C2785       C  0.94277456  0.08142068  0.27611942    -0.26300
S2786       S  0.98060486  0.17063696  0.30032504    -0.03500
C2787       C  0.97077519  0.17828909  0.33077503    -0.16900
C2788       C  0.95602278  0.16002050  0.34259057    -0.14900
H2789       H  0.93040378  0.11580347  0.35244258     0.20500
H2790       H  0.97182698  0.12509546  0.26682571     0.16500
H2791       H  0.94767962  0.08044669  0.25606522     0.19000
H2792       H  0.94865922  0.16121784  0.36188440     0.12400
C2793       C  0.80058485  0.02856514  0.14302388     0.16200
C2794       C  0.78073959  0.03318344  0.12579413    -0.32800
C2795       C  0.78749369  0.04245704  0.10157881     0.20600
C2796       C  0.81279402  0.04587562  0.09455651     0.02800
C2797       C  0.83246354  0.04024678  0.11127842    -0.22500
C2798       C  0.82569326  0.03233903  0.13567807     0.12000
S2799       S  0.79692194  0.02025940  0.17442328    -0.06200
C2800       C  0.82943384  0.02320492  0.17732219    -0.09600
C2801       C  0.84217980  0.02933344  0.15516357    -0.26300
S2802       S  0.81738669  0.06174786  0.06679905    -0.03500
C2803       C  0.78496689  0.06425691  0.06469395    -0.16900
C2804       C  0.77125880  0.05256057  0.08395397    -0.14900
H2805       H  0.76100681  0.03138994  0.13154633     0.20500
H2806       H  0.85213107  0.04391812  0.10620790     0.16500
H2807       H  0.86263446  0.03154447  0.15338166     0.19000
H2808       H  0.75083821  0.05422889  0.08651753     0.12400
C2809       C  0.77845511  0.95025050  0.39096206     0.16200
C2810       C  0.78655467  0.96981945  0.37463619    -0.32800
C2811       C  0.79802388  0.96256551  0.35148148     0.20600
C2812       C  0.80072696  0.93710839  0.34467272     0.02800
C2813       C  0.79162005  0.91778162  0.36033333    -0.22500
C2814       C  0.78096049  0.92496827  0.38361668     0.12000
S2815       S  0.76741138  0.95426385  0.42155176    -0.06200
C2816       C  0.76711613  0.92153981  0.42417734    -0.09600
C2817       C  0.77420686  0.90859677  0.40233639    -0.26300
S2818       S  0.81865511  0.93172672  0.31819276    -0.03500
C2819       C  0.82226817  0.96409592  0.31593310    -0.16900
C2820       C  0.81004709  0.97830299  0.33455909    -0.14900
H2821       H  0.78540865  0.98962711  0.38035024     0.20500
H2822       H  0.79433379  0.89789913  0.35539562     0.16500
H2823       H  0.77537017  0.88803208  0.40052856     0.19000
H2824       H  0.81172175  0.99876899  0.33675460     0.12400
C2825       C  0.94912791  0.90692727  0.18678153     0.16200
C2826       C  0.95230834  0.88959570  0.16702118    -0.32800
C2827       C  0.96308123  0.86612750  0.17311587     0.20600
C2828       C  0.97171410  0.86036096  0.19743074     0.02800
C2829       C  0.96932482  0.87819796  0.21719904    -0.22500
C2830       C  0.95733715  0.90144286  0.21135959     0.12000
S2831       S  0.93100418  0.93343701  0.18401507    -0.06200
C2832       C  0.93372638  0.93703447  0.21640932    -0.09600
C2833       C  0.94900910  0.91925482  0.22853572    -0.26300
S2834       S  0.98359358  0.83009830  0.20051234    -0.03500
C2835       C  0.97601063  0.82544748  0.16889955    -0.16900
C2836       C  0.96530711  0.84625401  0.15684394    -0.14900
H2837       H  0.94500288  0.89351071  0.14809644     0.20500
H2838       H  0.97507995  0.87358530  0.23648399     0.16500
H2839       H  0.95099261  0.91751464  0.24902631     0.19000
H2840       H  0.95980352  0.84700593  0.13693829     0.12400
C2841       C  0.80610517  0.87832977  0.25371934     0.16200
C2842       C  0.78624702  0.86089831  0.24969197    -0.32800
C2843       C  0.79010219  0.83547901  0.25731332     0.20600
C2844       C  0.81266853  0.82769961  0.26864169     0.02800
C2845       C  0.83257345  0.84515374  0.27266879    -0.22500
C2846       C  0.82876966  0.87058755  0.26487358     0.12000
S2847       S  0.80531214  0.90989765  0.24531846    -0.06200
C2848       C  0.83591422  0.91285067  0.25683379    -0.09600
C2849       C  0.84595077  0.89029610  0.26667482    -0.26300
S2850       S  0.81363817  0.79582763  0.27600990    -0.03500
C2851       C  0.78352420  0.79290386  0.26321120    -0.16900
C2852       C  0.77333801  0.81564324  0.25425350    -0.14900
H2853       H  0.76861855  0.86684263  0.24074022     0.20500
H2854       H  0.85034762  0.83912011  0.28126467     0.16500
H2855       H  0.86493740  0.88836032  0.27451747     0.19000
H2856       H  0.75480051  0.81738736  0.24536074     0.12400
C2857       C  0.79972197  0.11449180  0.24377322     0.16200
C2858       C  0.77897648  0.13130733  0.24661704    -0.32800
C2859       C  0.78359262  0.15762973  0.24397262     0.20600
C2860       C  0.80768005  0.16681038  0.23831235     0.02800
C2861       C  0.82834576  0.15000212  0.23522561    -0.22500
C2862       C  0.82381469  0.12373809  0.23822214     0.12000
S2863       S  0.79862280  0.08202856  0.24801048    -0.06200
C2864       C  0.83102902  0.08091464  0.24244040    -0.09600
C2865       C  0.84173183  0.10460754  0.23725502    -0.26300
S2866       S  0.80948144  0.19942009  0.23674824    -0.03500
C2867       C  0.77746154  0.20086474  0.24416917    -0.16900
C2868       C  0.76625087  0.17705646  0.24737394    -0.14900
H2869       H  0.76017311  0.12423311  0.25132435     0.20500
H2870       H  0.84729013  0.15713574  0.23123336     0.16500
H2871       H  0.86183803  0.10781828  0.23386747     0.19000
H2872       H  0.74651572  0.17417310  0.25268138     0.12400
C2873       C  0.93741711  0.02183971  0.42212876     0.16200
C2874       C  0.91782851  0.02463872  0.40406149    -0.32800
C2875       C  0.92316418  0.01793519  0.37859199     0.20600
C2876       C  0.94708175  0.00933808  0.37128816     0.02800
C2877       C  0.96680174  0.00705964  0.38923164    -0.22500
C2878       C  0.96132954  0.01327767  0.41475666     0.12000
S2879       S  0.93426141  0.02664328  0.45439118    -0.06200
C2880       C  0.96543684  0.01675660  0.45795060    -0.09600
C2881       C  0.97747673  0.01058750  0.43516096    -0.26300
S2882       S  0.94924329  0.00070436  0.33981384    -0.03500
C2883       C  0.91746433  0.00842830  0.33642255    -0.16900
C2884       C  0.90617337  0.01760434  0.35865173    -0.14900
H2885       H  0.89898546  0.03091342  0.40976197     0.20500
H2886       H  0.98538932  0.99992085  0.38369498     0.16500
H2887       H  0.99683538  0.00349675  0.43377770     0.19000
H2888       H  0.88631917  0.02304605  0.36032884     0.12400
C2889       C  0.10900174  0.28432330  0.94995353     0.16200
C2890       C  0.12596712  0.29051499  0.96965562    -0.32800
C2891       C  0.14932442  0.30161523  0.96258974     0.20600
C2892       C  0.15556468  0.30586266  0.93718405     0.02800
C2893       C  0.13903055  0.29920363  0.91773629    -0.22500
C2894       C  0.11571091  0.28882863  0.92476550     0.12000
S2895       S  0.07883075  0.27224767  0.95370315    -0.06200
C2896       C  0.07567563  0.27420486  0.92104681    -0.09600
C2897       C  0.09685778  0.28314461  0.90832488    -0.26300
S2898       S  0.18270099  0.32252789  0.93214357    -0.03500
C2899       C  0.18591496  0.32396400  0.96456962    -0.16900
C2900       C  0.16717827  0.31172475  0.97858595    -0.14900
H2901       H  0.12082576  0.28781006  0.98948143     0.20500
H2902       H  0.14360607  0.30314819  0.89796389     0.16500
H2903       H  0.09842840  0.28546647  0.88782889     0.19000
H2904       H  0.16546183  0.31238984  0.99916986     0.12400
C2905       C  0.05979060  0.15572658  0.79902583     0.16200
C2906       C  0.08002088  0.13935798  0.79404217    -0.32800
C2907       C  0.07409077  0.11447966  0.78711193     0.20600
C2908       C  0.04920155  0.10625400  0.78398896     0.02800
C2909       C  0.02876766  0.12294277  0.78845283    -0.22500
C2910       C  0.03471935  0.14777601  0.79645475     0.12000
S2911       S  0.06353640  0.18465684  0.81268216    -0.06200
C2912       C  0.03109349  0.18609591  0.81564570    -0.09600
C2913       C  0.01796018  0.16556795  0.80562319    -0.26300
S2914       S  0.04662742  0.07483545  0.77556292    -0.03500
C2915       C  0.07935994  0.07313530  0.77715903    -0.16900
C2916       C  0.09133259  0.09561832  0.78348984    -0.14900
H2917       H  0.09955097  0.14530967  0.79694653     0.20500
H2918       H  0.00923404  0.11653891  0.78699788     0.16500
H2919       H  0.99768628  0.16244968  0.80785221     0.19000
H2920       H  0.11176843  0.09822067  0.78479823     0.12400
C2921       C  0.94086335  0.35656984  0.82056969     0.16200
C2922       C  0.92565563  0.37817241  0.82086039    -0.32800
C2923       C  0.93093506  0.39689364  0.80295078     0.20600
C2924       C  0.95023228  0.39435657  0.78501638     0.02800
C2925       C  0.96609688  0.37275064  0.78511702    -0.22500
C2926       C  0.96096807  0.35392944  0.80350667     0.12000
S2927       S  0.93762306  0.33281664  0.84192173    -0.06200
C2928       C  0.96465822  0.31958540  0.82904885    -0.09600
C2929       C  0.97482410  0.33225089  0.80819699    -0.26300
S2930       S  0.95083003  0.41835765  0.76290143    -0.03500
C2931       C  0.92467376  0.43116977  0.77823084    -0.16900
C2932       C  0.91687458  0.41821496  0.79967417    -0.14900
H2933       H  0.91021703  0.38026091  0.83445463     0.20500
H2934       H  0.98146130  0.37061699  0.77147225     0.16500
H2935       H  0.99240107  0.32715839  0.79860256     0.19000
H2936       H  0.90021121  0.42291761  0.81100052     0.12400
C2937       C  0.84769499  0.19773856  0.94698610     0.16200
C2938       C  0.86289111  0.20480150  0.92643678    -0.32800
C2939       C  0.88838114  0.21013378  0.93142950     0.20600
C2940       C  0.89844294  0.20952451  0.95586359     0.02800
C2941       C  0.88301928  0.20277078  0.97668218    -0.22500
C2942       C  0.85747135  0.19661168  0.97155064     0.12000
S2943       S  0.81764310  0.18642393  0.94374517    -0.06200
C2944       C  0.81809456  0.17971010  0.97573111    -0.09600
C2945       C  0.84024531  0.18648402  0.98834408    -0.26300
S2946       S  0.93030199  0.21662846  0.95721863    -0.03500
C2947       C  0.92966011  0.21950216  0.92449081    -0.16900
C2948       C  0.90612885  0.21560578  0.91349459    -0.14900
H2949       H  0.85547891  0.20490014  0.90716328     0.20500
H2950       H  0.89077573  0.20139649  0.99575832     0.16500
H2951       H  0.84449111  0.18168949  0.00798771     0.19000
H2952       H  0.90209417  0.21708773  0.89327364     0.12400
C2953       C  0.12039885  0.25286650  0.80007229     0.16200
C2954       C  0.13951932  0.26152373  0.78338622    -0.32800
C2955       C  0.16375175  0.25007135  0.78493269     0.20600
C2956       C  0.16869881  0.23044904  0.80196671     0.02800
C2957       C  0.14961001  0.22191780  0.81882426    -0.22500
C2958       C  0.12549610  0.23378443  0.81764364     0.12000
S2959       S  0.08992127  0.26476202  0.80166120    -0.06200
C2960       C  0.08398265  0.24426620  0.82671049    -0.09600
C2961       C  0.10482354  0.22901548  0.83313736    -0.26300
S2962       S  0.19931585  0.21879587  0.80035065    -0.03500
C2963       C  0.20559994  0.24100533  0.77686749    -0.16900
C2964       C  0.18486824  0.25630587  0.77069462    -0.14900
H2965       H  0.13574895  0.27675645  0.76993904     0.20500
H2966       H  0.15346165  0.20688167  0.83246817     0.16500
H2967       H  0.10491803  0.21530389  0.84860186     0.19000
H2968       H  0.18523667  0.27111669  0.75628775     0.12400
C2969       C  0.00549513  0.36557536  0.95110441     0.16200
C2970       C  0.99916451  0.38357503  0.97000807    -0.32800
C2971       C  0.00554434  0.40928991  0.96559611     0.20600
C2972       C  0.01812944  0.41675103  0.94357183     0.02800
C2973       C  0.02456552  0.39874253  0.92472940    -0.22500
C2974       C  0.01779221  0.37309815  0.92894642     0.12000
S2975       S  0.99790996  0.33371480  0.95194710    -0.06200
C2976       C  0.01105310  0.33047976  0.92190619    -0.09600
C2977       C  0.02109604  0.35310563  0.91225333    -0.26300
S2978       S  0.02391286  0.44893083  0.94178763    -0.03500
C2979       C  0.00881760  0.45249229  0.97083373    -0.16900
C2980       C  0.00009876  0.42970187  0.98120521    -0.14900
H2981       H  0.98917869  0.37787251  0.98717860     0.20500
H2982       H  0.03400345  0.40454904  0.90728358     0.16500
H2983       H  0.02950522  0.35507229  0.89346905     0.19000
H2984       H  0.99014736  0.42822832  0.99926304     0.12400
C2985       C  0.88040633  0.26210502  0.80370860     0.16200
C2986       C  0.86290273  0.26082951  0.78339589    -0.32800
C2987       C  0.83670873  0.26259961  0.78914721     0.20600
C2988       C  0.82831712  0.26585568  0.81400479     0.02800
C2989       C  0.84583066  0.26749817  0.83428156    -0.22500
C2990       C  0.87201422  0.26542650  0.82856687     0.12000
S2991       S  0.91283364  0.25847424  0.80097468    -0.06200
C2992       C  0.91527358  0.26139294  0.83369890    -0.09600
C2993       C  0.89189573  0.26525450  0.84577923    -0.26300
S2994       S  0.79574675  0.26638456  0.81707655    -0.03500
C2995       C  0.79320383  0.26169194  0.78452612    -0.16900
C2996       C  0.81672297  0.26040514  0.77221075    -0.14900
H2997       H  0.86939864  0.25790710  0.76399403     0.20500
H2998       H  0.83929341  0.26967443  0.85376769     0.16500
H2999       H  0.88945863  0.26688832  0.86623672     0.19000
H3000       H  0.81905175  0.25716024  0.75193815     0.12400
C3001       C  0.92425864  0.05818843  0.01858585     0.16200
C3002       C  0.90582402  0.07632044  0.02601925    -0.32800
C3003       C  0.88100449  0.07391434  0.01603896     0.20600
C3004       C  0.87481645  0.05424016  0.99954403     0.02800
C3005       C  0.89324637  0.03631261  0.99195994    -0.22500
C3006       C  0.91800490  0.03878434  0.00178942     0.12000
S3007       S  0.95545540  0.05743056  0.02853963    -0.06200
C3008       C  0.95998285  0.03079820  0.00973440    -0.09600
C3009       C  0.93841283  0.02318157  0.99656170    -0.26300
S3010       S  0.84374343  0.05445209  0.98961578    -0.03500
C3011       C  0.83884924  0.08156910  0.00757859    -0.16900
C3012       C  0.86047092  0.08975175  0.02059920    -0.14900
H3013       H  0.91061452  0.09164184  0.03898605     0.20500
H3014       H  0.88848391  0.02105152  0.97890578     0.16500
H3015       H  0.93773937  0.00690679  0.98386471     0.19000
H3016       H  0.86116736  0.10652365  0.03262511     0.12400
C3017       C  0.05754633  0.01149484  0.86986733     0.16200
C3018       C  0.03705909  0.00913629  0.88696558    -0.32800
C3019       C  0.04216101  0.01147182  0.91315569     0.20600
C3020       C  0.06653829  0.01630319  0.92200013     0.02800
C3021       C  0.08705955  0.01882865  0.90485864    -0.22500
C3022       C  0.08200108  0.01620882  0.87860988     0.12000
S3023       S  0.05544558  0.00768547  0.83753546    -0.06200
C3024       C  0.08791335  0.01232498  0.83555634    -0.09600
C3025       C  0.09950603  0.01687024  0.85897217    -0.26300
S3026       S  0.06871214  0.01772908  0.95460681    -0.03500
C3027       C  0.03650783  0.01117965  0.95636587    -0.16900
C3028       C  0.02493525  0.00858742  0.93271008    -0.14900
H3029       H  0.01801483  0.00508932  0.88016474     0.20500
H3030       H  0.10621369  0.02219903  0.91171307     0.16500
H3031       H  0.11979019  0.01954495  0.86159517     0.19000
H3032       H  0.00499105  0.00408267  0.93001618     0.12400
C3033       C  0.01988081  0.91819273  0.05753013     0.16200
C3034       C  0.02418669  0.90019580  0.07687715    -0.32800
C3035       C  0.01924305  0.87444854  0.07141929     0.20600
C3036       C  0.01052156  0.86678005  0.04770454     0.02800
C3037       C  0.00635880  0.88480503  0.02823611    -0.22500
C3038       C  0.01111035  0.91065111  0.03378305     0.12000
S3039       S  0.02408220  0.95042799  0.06065616    -0.06200
C3040       C  0.01354392  0.95397570  0.02974643    -0.09600
C3041       C  0.00748831  0.93112664  0.01776187    -0.26300
S3042       S  0.00452834  0.83464906  0.04555941    -0.03500
C3043       C  0.01374499  0.83161060  0.07700963    -0.16900
C3044       C  0.02127264  0.85442923  0.08814831    -0.14900
H3045       H  0.03073717  0.90606100  0.09555329     0.20500
H3046       H  0.99928373  0.87900752  0.00973574     0.16500
H3047       H  0.00049886  0.92967610  0.99838959     0.19000
H3048       H  0.02705044  0.85645818  0.10787366     0.12400
C3049       C  0.13842177  0.95119878  0.99582933     0.16200
C3050       C  0.12009931  0.96841926  0.00515018    -0.32800
C3051       C  0.09465560  0.96503864  0.99753270     0.20600
C3052       C  0.08772474  0.94570036  0.98092713     0.02800
C3053       C  0.10604321  0.92840072  0.97168242    -0.22500
C3054       C  0.13144501  0.93153066  0.97965809     0.12000
S3055       S  0.17003099  0.95104168  0.00408172    -0.06200
C3056       C  0.17386964  0.92378560  0.98606535    -0.09600
C3057       C  0.15167579  0.91583360  0.97395971    -0.26300
S3058       S  0.05590721  0.94546586  0.97338303    -0.03500
C3059       C  0.05192152  0.97147039  0.99311346    -0.16900
C3060       C  0.07414722  0.97964198  0.00481093    -0.14900
H3061       H  0.12538249  0.98358738  0.01810939     0.20500
H3062       H  0.10068876  0.91298922  0.95904421     0.16500
H3063       H  0.15012380  0.89866718  0.96258271     0.19000
H3064       H  0.07528063  0.99593020  0.01745556     0.12400
C3065       C  0.94595323  0.98765863  0.08176286     0.16200
C3066       C  0.92571664  0.98370688  0.09891983    -0.32800
C3067       C  0.92974298  0.98958292  0.12480654     0.20600
C3068       C  0.95286972  0.99899418  0.13329967     0.02800
C3069       C  0.97305550  0.00307628  0.11612281    -0.22500
C3070       C  0.96902503  0.99722913  0.09024457     0.12000
S3071       S  0.94494602  0.98193389  0.04953853    -0.06200
C3072       C  0.97596305  0.99253707  0.04747400    -0.09600
C3073       C  0.98618732  0.00023124  0.07064423    -0.26300
S3074       S  0.95377832  0.00509876  0.16545566    -0.03500
C3075       C  0.92263318  0.99487386  0.16757492    -0.16900
C3076       C  0.91237210  0.98721872  0.14432994    -0.14900
H3077       H  0.90757686  0.97642723  0.09236772     0.20500
H3078       H  0.99111777  0.01058045  0.12263273     0.16500
H3079       H  0.00519129  0.00790006  0.07291920     0.19000
H3080       H  0.89304912  0.98047555  0.14179432     0.12400
C3081       C  0.00488757  0.09341286  0.96564709     0.16200
C3082       C  0.01049724  0.11946226  0.96298473    -0.32800
C3083       C  0.00003344  0.13248812  0.94204670     0.20600
C3084       C  0.98458525  0.12007525  0.92460161     0.02800
C3085       C  0.97871941  0.09408929  0.92743216    -0.22500
C3086       C  0.98926358  0.08104064  0.94831027     0.12000
S3087       S  0.01648946  0.07415612  0.98921020    -0.06200
C3088       C  0.00012650  0.04919145  0.97564880    -0.09600
C3089       C  0.98630576  0.05559142  0.95405360    -0.26300
S3090       S  0.97491813  0.13880257  0.89975920    -0.03500
C3091       C  0.99186002  0.16371621  0.91289089    -0.16900
C3092       C  0.00411946  0.15760885  0.93555386    -0.14900
H3093       H  0.02283560  0.12905926  0.97643353     0.20500
H3094       H  0.96680779  0.08436190  0.91369626     0.16500
H3095       H  0.97495405  0.04232600  0.94309992     0.19000
H3096       H  0.01616817  0.17053922  0.94616885     0.12400
loop_ 
_geom_bond_atom_site_label_1 
_geom_bond_atom_site_label_2 
_geom_bond_distance 
_geom_bond_site_symmetry_2 
_ccdc_geom_bond_type 
C1            C2   1.416   1_654  A
C1            C6   1.418   1_545  A
C1         C3008   1.491       .  S
C2            C3   1.418       .  A
C2         C3088   1.484       .  S
C3            C4   1.420   1_545  A
C3         C3027   1.497       .  S
C4            C5   1.421   1_556  A
C4         C3059   1.489       .  S
C5            C6   1.423   1_455  A
C5         C3040   1.492       .  S
C6         C3072   1.492       .  S
O7           C15   1.275       .  A
O7          Co27   2.015       .  S
O8           C16   1.272       .  A
O8          Co28   1.993       .  S
O9           C17   1.265       .  A
O9          Co29   1.985       .  S
O10          C18   1.268       .  A
O10         Co30   1.987       .  S
O11          C17   1.272       .  A
O11         Co28   2.046       .  S
O12          C18   1.269       .  A
O12         Co27   2.028       .  S
O13          C16   1.266       .  A
O13         Co30   1.961   1_655  S
O14          C15   1.262       .  A
O14         Co29   1.952   1_455  S
C15        C2912   1.448       .  S
C16        C2928   1.450       .  S
C17        C2992   1.491       .  S
C18        C2960   1.489       .  S
O19          C32   1.265       .  A
O19         Co27   1.971       .  S
O20          C33   1.264       .  A
O20         Co28   1.966       .  S
O21          C34   1.268       .  A
O21         Co29   2.021       .  S
O22          C35   1.269       .  A
O22         Co30   2.023       .  S
O23          C35   1.268   1_655  A
O23         Co28   1.991       .  S
O24          C34   1.264   1_455  A
O24         Co27   1.980       .  S
O25          C32   1.272       .  A
O25         Co30   1.994       .  S
O26          C33   1.274       .  A
O26         Co29   2.009       .  S
Co27         O31   2.100       .  S
Co28         O31   2.098   1_655  S
Co29         O31   2.101   1_655  S
Co30         O31   2.103       .  S
C32        C2896   1.457       .  S
C33        C2947   1.458       .  S
C34        C3091   1.480       .  S
C35        C2976   1.489       .  S
O36          C44   1.275       .  A
O36         Co56   2.006       .  S
O37          C45   1.277       .  A
O37         Co57   2.026       .  S
O38          C46   1.263       .  A
O38         Co58   1.979       .  S
O39          C47   1.263       .  A
O39         Co59   1.987       .  S
O40          C46   1.268       .  A
O40         Co57   2.028       .  S
O41          C47   1.266       .  A
O41         Co56   2.022       .  S
O42          C45   1.262       .  A
O42         Co59   1.945   1_565  S
O43          C44   1.262       .  A
O43         Co58   1.957   1_545  S
C44        C2800   1.451       .  S
C45        C2819   1.450       .  S
C46        C2848   1.484       .  S
C47        C2864   1.484       .  S
O48          C61   1.264       .  A
O48         Co56   1.954       .  S
O49          C62   1.264       .  A
O49         Co57   1.958       .  S
O50          C63   1.268       .  A
O50         Co58   2.031       .  S
O51          C64   1.268       .  A
O51         Co59   2.027       .  S
O52          C64   1.262   1_565  A
O52         Co57   1.982       .  S
O53          C63   1.265   1_545  A
O53         Co56   1.983       .  S
O54          C61   1.274       .  A
O54         Co59   2.009       .  S
O55          C62   1.274       .  A
O55         Co58   2.008       .  S
Co56         O60   2.107   1_545  S
Co57         O60   2.107       .  S
Co58         O60   2.095       .  S
Co59         O60   2.096   1_545  S
C61        C2784   1.450       .  S
C62        C2832   1.450       .  S
C63        C3075   1.486       .  S
C64        C2883   1.484       .  S
C65          C66   1.423   1_565  A
C65          C70   1.421       .  A
C65        C2704   1.498       .  S
C66          C67   1.423   1_655  A
C66        C2880   1.491       .  S
C67          C68   1.420       .  A
C67        C2752   1.494       .  S
C68          C69   1.424   1_545  A
C68        C2720   1.501       .  S
C69          C70   1.423   1_455  A
C69        C2736   1.490       .  S
C70        C2771   1.496       .  S
O71          C79   1.273       .  A
O71         Co91   2.007       .  S
O72          C80   1.273       .  A
O72         Co92   2.007       .  S
O73          C81   1.265       .  A
O73         Co93   1.983       .  S
O74          C82   1.267       .  A
O74         Co94   1.984       .  S
O75          C81   1.270       .  A
O75         Co92   2.032       .  S
O76          C82   1.270       .  A
O76         Co91   2.033       .  S
O77          C80   1.262       .  A
O77         Co94   1.965   1_655  S
O78          C79   1.262   1_655  A
O78         Co93   1.963       .  S
C79        C2595   1.452       .  S
C80        C2608   1.462       .  S
C81        C2688   1.490       .  S
C82        C2656   1.489       .  S
O83          C96   1.262       .  A
O83         Co91   1.964       .  S
O84          C97   1.261       .  A
O84         Co92   1.951       .  S
O85          C98   1.271       .  A
O85         Co93   2.041       .  S
O86          C99   1.270       .  A
O86         Co94   2.037       .  S
O87          C99   1.262       .  A
O87         Co92   1.976   1_455  S
O88          C98   1.265   1_455  A
O88         Co91   1.984       .  S
O89          C96   1.273       .  A
O89         Co94   2.005       .  S
O90          C97   1.273       .  A
O90         Co93   2.016       .  S
Co91         O95   2.104       .  S
Co92         O95   2.102   1_655  S
Co93         O95   2.103   1_655  S
Co94         O95   2.112       .  S
C96        C2624   1.458       .  S
C97        C2643   1.448       .  S
C98        C2768   1.492       .  S
C99        C2672   1.485       .  S
O100        C108   1.270       .  A
O100       Co120   1.989       .  S
O101        C109   1.274       .  A
O101       Co121   2.021       .  S
O102        C110   1.266       .  A
O102       Co122   1.978       .  S
O103        C111   1.264       .  A
O103       Co123   1.975       .  S
O104        C110   1.269       .  A
O104       Co121   2.021       .  S
O105        C111   1.272       .  A
O105       Co120   2.034       .  S
O106        C109   1.261       .  A
O106       Co123   1.951   1_556  S
O107        C108   1.267       .  A
O107       Co122   1.972   1_554  S
C108       C2483   1.458       .  S
C109       C2496   1.450       .  S
C110       C2544   1.479       .  S
C111       C2563   1.483       .  S
O112        C125   1.261       .  A
O112       Co120   1.954       .  S
O113        C126   1.264       .  A
O113       Co121   1.970       .  S
O114        C127   1.269       .  A
O114       Co122   2.021       .  S
O115        C128   1.269       .  A
O115       Co123   2.029       .  S
O116        C128   1.265   1_556  A
O116       Co121   1.982       .  S
O117        C127   1.266       .  A
O117       Co120   1.982   1_556  S
O118        C125   1.272       .  A
O118       Co123   2.000       .  S
O119        C126   1.273       .  A
O119       Co122   2.002       .  S
Co120       O124   2.098   1_554  S
Co121       O124   2.101       .  S
Co122       O124   2.103       .  S
Co123       O124   2.099   1_554  S
C125       C2512   1.451       .  S
C126       C2531   1.456       .  S
C127       C3056   1.483       .  S
C128       C2576   1.484       .  S
O129        C137   1.265       .  A
O129       Co149   1.958   1_655  S
O130        C138   1.261   1_655  A
O130       Co150   1.942       .  S
O131        C139   1.265       .  A
O131       Co151   2.029       .  S
O132        C140   1.266       .  A
O132       Co152   2.026       .  S
O133        C139   1.260       .  A
O133       Co150   1.978       .  S
O134        C140   1.263       .  A
O134       Co149   1.978       .  S
O135        C138   1.278       .  A
O135       Co152   2.023       .  S
O136        C137   1.277       .  A
O136       Co151   2.010       .  S
C137       C2835   1.456       .  S
C138       C2416   1.442       .  S
C139       C2448   1.485       .  S
C140       C2467   1.486       .  S
O141        C154   1.278       .  A
O141       Co149   2.014       .  S
O142        C155   1.276       .  A
O142       Co150   2.022       .  S
O143        C156   1.262       .  A
O143       Co151   1.984   1_455  S
O144        C157   1.261   1_455  A
O144       Co152   1.982       .  S
O145        C157   1.266       .  A
O145       Co150   2.027       .  S
O146        C156   1.264       .  A
O146       Co149   2.018       .  S
O147        C154   1.264       .  A
O147       Co152   1.955       .  S
O148        C155   1.262       .  A
O148       Co151   1.943       .  S
Co149       O153   2.096       .  S
Co150       O153   2.099   1_655  S
Co151       O153   2.104   1_655  S
Co152       O153   2.105       .  S
C154       C2480   1.455       .  S
C155       C2400   1.442       .  S
C156       C3043   1.483       .  S
C157       C2432   1.485       .  S
C158        C159   1.416       .  A
C158        C163   1.418       .  A
C158       C2352   1.491       .  S
C159        C160   1.419       .  A
C159       C2560   1.491       .  S
C160        C161   1.423       .  A
C160       C2464   1.487       .  S
C161        C162   1.422       .  A
C161       C2368   1.496       .  S
C162        C163   1.422       .  A
C162       C2387   1.494       .  S
C163       C2336   1.489       .  S
O164        C172   1.264       .  A
O164       Co184   1.951       .  S
O165        C173   1.268       .  A
O165       Co185   1.966       .  S
O166        C174   1.263       .  A
O166       Co186   2.011       .  S
O167        C175   1.266       .  A
O167       Co187   2.026       .  S
O168        C174   1.265       .  A
O168       Co185   1.994       .  S
O169        C175   1.263       .  A
O169       Co184   1.991       .  S
O170        C173   1.277       .  A
O170       Co187   2.005       .  S
O171        C172   1.278       .  A
O171       Co186   2.025       .  S
C172       C2627   1.452       .  S
C173       C2275   1.462       .  S
C174       C2320   1.486       .  S
C175       C2384   1.490       .  S
O176        C189   1.278       .  A
O176       Co184   2.027       .  S
O177        C190   1.278       .  A
O177       Co185   2.026       .  S
O178        C191   1.261       .  A
O178       Co186   1.977       .  S
O179        C192   1.264       .  A
O179       Co187   1.985       .  S
O180        C192   1.266       .  A
O180       Co185   2.025       .  S
O181        C191   1.266       .  A
O181       Co184   2.026       .  S
O182        C189   1.263       .  A
O182       Co187   1.948       .  S
O183        C190   1.267       .  A
O183       Co186   1.957       .  S
Co184       O188   2.108       .  S
Co185       O188   2.107       .  S
Co186       O188   2.100       .  S
Co187       O188   2.099       .  S
C189       C2240   1.452       .  S
C190       C2256   1.457       .  S
C191       C2304   1.483       .  S
C192       C2288   1.486       .  S
C193        C194   1.423       .  A
C193        C198   1.422       .  A
C193       C2192   1.496       .  S
C194        C195   1.425       .  A
C194       C2659   1.503       .  S
C195        C196   1.424       .  A
C195       C2323   1.492       .  S
C196        C197   1.416       .  A
C196       C2208   1.489       .  S
C197        C198   1.417       .  A
C197       C2224   1.500       .  S
C198       C2547   1.484       .  S
O199        C207   1.276       .  A
O199       Co219   2.007       .  S
O200        C208   1.279       .  A
O200       Co220   2.034       .  S
O201        C209   1.261       .  A
O201       Co221   1.977       .  S
O202        C210   1.264       .  A
O202       Co222   1.989       .  S
O203        C209   1.264       .  A
O203       Co220   2.018       .  S
O204        C210   1.266       .  A
O204       Co219   2.023       .  S
O205        C208   1.262       .  A
O205       Co222   1.947       .  S
O206        C207   1.265       .  A
O206       Co221   1.963       .  S
C207       C2499   1.455       .  S
C208       C2115   1.453       .  S
C209       C2144   1.480       .  S
C210       C2176   1.490       .  S
O211        C224   1.269       .  A
O211       Co219   1.971       .  S
O212        C225   1.264       .  A
O212       Co220   1.957       .  S
O213        C226   1.266       .  A
O213       Co221   2.019       .  S
O214        C227   1.267       .  A
O214       Co222   2.032       .  S
O215        C227   1.259       .  A
O215       Co220   1.973       .  S
O216        C226   1.269       .  A
O216       Co219   1.995       .  S
O217        C224   1.275       .  A
O217       Co222   2.000       .  S
O218        C225   1.277       .  A
O218       Co221   2.031       .  S
Co219       O223   2.111       .  S
Co220       O223   2.098       .  S
Co221       O223   2.102       .  S
Co222       O223   2.111       .  S
C224       C2096   1.462       .  S
C225       C2128   1.453       .  S
C226       C2227   1.493       .  S
C227       C2160   1.485       .  S
C228        C229   1.419       .  A
C228        C233   1.416       .  A
C228       C2064   1.488       .  S
C229        C230   1.423       .  A
C229       C2080   1.491       .  S
C230        C231   1.428       .  A
C230       C2995   1.505       .  S
C231        C232   1.423       .  A
C231       C2032   1.486       .  S
C232        C233   1.417       .  A
C232       C2016   1.496       .  S
C233       C2048   1.493       .  S
O234        C242   1.275       .  A
O234       Co254   2.003       .  S
O235        C243   1.277       .  A
O235       Co255   2.022       .  S
O236        C244   1.258       .  A
O236       Co256   1.968       .  S
O237        C245   1.264       .  A
O237       Co257   1.989       .  S
O238        C244   1.266       .  A
O238       Co255   2.022       .  S
O239        C245   1.267       .  A
O239       Co254   2.023       .  S
O240        C243   1.266       .  A
O240       Co257   1.959       .  S
O241        C242   1.262       .  A
O241       Co256   1.954       .  S
C242       C2931   1.453       .  S
C243       C2611   1.456       .  S
C244       C1968   1.474       .  S
C245       C1984   1.488       .  S
O246        C259   1.265       .  A
O246       Co254   1.951       .  S
O247        C260   1.262       .  A
O247       Co255   1.954       .  S
O248        C261   1.266       .  A
O248       Co256   2.021       .  S
O249        C262   1.267       .  A
O249       Co257   2.032       .  S
O250        C262   1.261       .  A
O250       Co255   1.978       .  S
O251        C261   1.265       .  A
O251       Co254   1.989       .  S
O252        C259   1.276       .  A
O252       Co257   2.018       .  S
O253        C260   1.276       .  A
O253       Co256   2.026       .  S
Co254       O258   2.100       .  S
Co255       O258   2.091       .  S
Co256       O258   2.107       .  S
Co257       O258   2.110       .  S
C259       C1952   1.448       .  S
C260       C1936   1.447       .  S
C261       C2083   1.487       .  S
C262       C2000   1.486       .  S
O263        C271   1.265       .  A
O263       Co283   1.961   1_655  S
O264        C272   1.261   1_655  A
O264       Co284   1.952       .  S
O265        C273   1.269       .  A
O265       Co285   2.037       .  S
O266        C274   1.265       .  A
O266       Co286   2.014       .  S
O267        C273   1.262       .  A
O267       Co284   1.979       .  S
O268        C274   1.264       .  A
O268       Co283   1.982       .  S
O269        C272   1.277       .  A
O269       Co286   2.030       .  S
O270        C271   1.274       .  A
O270       Co285   2.001       .  S
C271       C2787   1.458       .  S
C272       C1872   1.452       .  S
C273       C1907   1.491       .  S
C274       C1923   1.481       .  S
O275        C288   1.275       .  A
O275       Co283   2.010       .  S
O276        C289   1.275       .  A
O276       Co284   2.018       .  S
O277        C290   1.264       .  A
O277       Co285   1.984   1_455  S
O278        C291   1.260   1_455  A
O278       Co286   1.971       .  S
O279        C291   1.269       .  A
O279       Co284   2.041       .  S
O280        C290   1.267       .  A
O280       Co283   2.026       .  S
O281        C288   1.264       .  A
O281       Co286   1.961       .  S
O282        C289   1.261       .  A
O282       Co285   1.946       .  S
Co283       O287   2.107   1_455  S
Co284       O287   2.106       .  S
Co285       O287   2.105       .  S
Co286       O287   2.099   1_455  S
C288       C1859   1.456       .  S
C289       C1840   1.446       .  S
C290       C2755   1.487       .  S
C291       C1891   1.487       .  S
C292        C293   1.418       .  A
C292        C297   1.418       .  A
C292       C1763   1.493       .  S
C293        C294   1.418       .  A
C293       C1920   1.484       .  S
C294        C295   1.417       .  A
C294       C1776   1.492       .  S
C295        C296   1.417       .  A
C295       C1808   1.487       .  S
C296        C297   1.418       .  A
C296       C1795   1.487       .  S
C297       C1824   1.489       .  S
O298        C306   1.262       .  A
O298       Co318   1.945   1_556  S
O299        C307   1.267   1_556  A
O299       Co319   1.969       .  S
O300        C308   1.264       .  A
O300       Co320   2.013       .  S
O301        C309   1.266       .  A
O301       Co321   2.019       .  S
O302        C308   1.265       .  A
O302       Co319   1.991       .  S
O303        C309   1.262       .  A
O303       Co318   1.980       .  S
O304        C307   1.276       .  A
O304       Co321   2.004       .  S
O305        C306   1.276       .  A
O305       Co320   2.020       .  S
C306       C2899   1.446       .  S
C307       C1699   1.460       .  S
C308       C1747   1.484       .  S
C309       C1827   1.479       .  S
O310        C323   1.275       .  A
O310       Co318   2.011       .  S
O311        C324   1.277       .  A
O311       Co319   2.025       .  S
O312        C325   1.259   1_556  A
O312       Co320   1.969       .  S
O313        C326   1.265   1_554  A
O313       Co321   1.984       .  S
O314        C326   1.267       .  A
O314       Co319   2.021       .  S
O315        C325   1.267       .  A
O315       Co318   2.033       .  S
O316        C323   1.266       .  A
O316       Co321   1.958       .  S
O317        C324   1.263       .  A
O317       Co320   1.946       .  S
Co318       O322   2.105   1_554  S
Co319       O322   2.105       .  S
Co320       O322   2.096       .  S
Co321       O322   2.103   1_554  S
C323       C1683   1.453       .  S
C324       C1667   1.446       .  S
C325       C1715   1.481       .  S
C326       C1731   1.484       .  S
C327        C328   1.424       .  A
C327        C332   1.423       .  A
C327       C1603   1.497       .  S
C328        C329   1.422       .  A
C328       C1616   1.500       .  S
C329        C330   1.424       .  A
C329       C2963   1.493       .  S
C330        C331   1.419       .  A
C330       C1744   1.486       .  S
C331        C332   1.419       .  A
C331       C1632   1.506       .  S
C332       C1648   1.484       .  S
O333        C341   1.272       .  A
O333       Co353   2.003       .  S
O334        C342   1.272       .  A
O334       Co354   2.009       .  S
O335        C343   1.264       .  A
O335       Co355   1.973       .  S
O336        C344   1.262       .  A
O336       Co356   1.975       .  S
O337        C343   1.269       .  A
O337       Co354   2.027       .  S
O338        C344   1.271       .  A
O338       Co353   2.038       .  S
O339        C342   1.264       .  A
O339       Co356   1.960       .  S
O340        C341   1.260       .  A
O340       Co355   1.955       .  S
C341       C1507   1.446       .  S
C342       C1539   1.450       .  S
C343       C1587   1.479       .  S
C344       C1568   1.483       .  S
O345        C358   1.257       .  A
O345       Co353   1.944       .  S
O346        C359   1.264       .  A
O346       Co354   1.965       .  S
O347        C360   1.269       .  A
O347       Co355   2.032       .  S
O348        C361   1.268       .  A
O348       Co356   2.018       .  S
O349        C361   1.265       .  A
O349       Co354   1.978       .  S
O350        C360   1.264       .  A
O350       Co353   1.981       .  S
O351        C358   1.272       .  A
O351       Co356   2.017       .  S
O352        C359   1.272       .  A
O352       Co355   1.991       .  S
Co353       O357   2.098       .  S
Co354       O357   2.104       .  S
Co355       O357   2.090       .  S
Co356       O357   2.102       .  S
C358       C1555   1.437       .  S
C359       C1520   1.456       .  S
C360       C2051   1.486       .  S
C361       C1651   1.478       .  S
O362        C370   1.265       .  A
O362       Co382   1.958   1_565  S
O363        C371   1.261   1_565  A
O363       Co383   1.951       .  S
O364        C372   1.270       .  A
O364       Co384   2.032       .  S
O365        C373   1.268       .  A
O365       Co385   2.020       .  S
O366        C372   1.266       .  A
O366       Co383   1.982       .  S
O367        C373   1.265       .  A
O367       Co382   1.982       .  S
O368        C371   1.275       .  A
O368       Co385   2.024       .  S
O369        C370   1.271       .  A
O369       Co384   1.995       .  S
C370       C2515   1.446       .  S
C371       C1456   1.450       .  S
C372       C2355   1.486       .  S
C373       C1811   1.483       .  S
O374        C387   1.273       .  A
O374       Co382   2.004       .  S
O375        C388   1.273       .  A
O375       Co383   1.993       .  S
O376        C389   1.267       .  A
O376       Co384   1.988   1_545  S
O377        C390   1.262   1_545  A
O377       Co385   1.977       .  S
O378        C390   1.270       .  A
O378       Co383   2.036       .  S
O379        C389   1.269       .  A
O379       Co382   2.024       .  S
O380        C387   1.263       .  A
O380       Co385   1.961       .  S
O381        C388   1.266       .  A
O381       Co384   1.967       .  S
Co382       O386   2.108       .  S
Co383       O386   2.100   1_565  S
Co384       O386   2.104   1_565  S
Co385       O386   2.095       .  S
C387       C1443   1.451       .  S
C388       C1424   1.460       .  S
C389       C1475   1.490       .  S
C390       C1488   1.486       .  S
C391        C392   1.420       .  A
C391        C396   1.421       .  A
C391       C1584   1.484       .  S
C392        C393   1.418   1_545  A
C392       C1376   1.497       .  S
C393        C394   1.421       .  A
C393       C1491   1.491       .  S
C394        C395   1.423       .  A
C394       C1408   1.494       .  S
C395        C396   1.422   1_565  A
C395       C1360   1.494       .  S
C396       C1392   1.498       .  S
O397        C405   1.265       .  A
O397       Co417   1.954       .  S
O398        C406   1.261       .  A
O398       Co418   1.941       .  S
O399        C407   1.267       .  A
O399       Co419   2.036       .  S
O400        C408   1.267       .  A
O400       Co420   2.024       .  S
O401        C407   1.259       .  A
O401       Co418   1.970       .  S
O402        C408   1.265       .  A
O402       Co417   1.988       .  S
O403        C406   1.277       .  A
O403       Co420   2.025       .  S
O404        C405   1.275       .  A
O404       Co419   2.014       .  S
C405       C2272   1.451       .  S
C406       C1315   1.445       .  S
C407       C1328   1.482       .  S
C408       C1411   1.489       .  S
O409        C422   1.274       .  A
O409       Co417   2.006       .  S
O410        C423   1.276       .  A
O410       Co418   2.019       .  S
O411        C424   1.261       .  A
O411       Co419   1.975       .  S
O412        C425   1.262       .  A
O412       Co420   1.983       .  S
O413        C425   1.265       .  A
O413       Co418   2.020       .  S
O414        C424   1.267       .  A
O414       Co417   2.026       .  S
O415        C422   1.265       .  A
O415       Co420   1.958       .  S
O416        C423   1.262       .  A
O416       Co419   1.953       .  S
Co417       O421   2.104       .  S
Co418       O421   2.094       .  S
Co419       O421   2.108       .  S
Co420       O421   2.106       .  S
C422       C1427   1.450       .  S
C423       C1296   1.454       .  S
C424       C2339   1.481       .  S
C425       C1344   1.481       .  S
O426        C434   1.264       .  A
O426       Co446   1.951       .  S
O427        C435   1.262       .  A
O427       Co447   1.952       .  S
O428        C436   1.267       .  A
O428       Co448   2.023       .  S
O429        C437   1.269       .  A
O429       Co449   2.037       .  S
O430        C436   1.264   1_545  A
O430       Co447   1.985       .  S
O431        C437   1.262   1_565  A
O431       Co446   1.982       .  S
O432        C435   1.274       .  A
O432       Co449   2.007       .  S
O433        C434   1.276       .  A
O433       Co448   2.019       .  S
C434       C2099   1.451       .  S
C435       C1523   1.447       .  S
C436       C1283   1.484       .  S
C437       C1395   1.490       .  S
O438        C451   1.276       .  A
O438       Co446   2.020       .  S
O439        C452   1.276       .  A
O439       Co447   2.005       .  S
O440        C453   1.265       .  A
O440       Co448   1.989       .  S
O441        C454   1.262       .  A
O441       Co449   1.982       .  S
O442        C454   1.268       .  A
O442       Co447   2.035       .  S
O443        C453   1.267       .  A
O443       Co446   2.030       .  S
O444        C451   1.260       .  A
O444       Co449   1.940   1_565  S
O445        C452   1.266       .  A
O445       Co448   1.964   1_545  S
Co446       O450   2.104   1_565  S
Co447       O450   2.108       .  S
Co448       O450   2.101   1_565  S
Co449       O450   2.097       .  S
C451       C1248   1.443       .  S
C452       C1232   1.460       .  S
C453       C1264   1.492       .  S
C454       C2019   1.489       .  S
C455        C456   1.420   1_545  A
C455        C460   1.420       .  A
C455       C1472   1.494       .  S
C456        C457   1.419   1_554  A
C456       C2579   1.486       .  S
C457        C458   1.419       .  A
C457       C2179   1.495       .  S
C458        C459   1.422   1_566  A
C458       C1280   1.492       .  S
C459        C460   1.419       .  A
C459       C1200   1.489   1_554  S
C460       C1216   1.493       .  S
O461        C469   1.265       .  A
O461       Co481   1.958       .  S
O462        C470   1.263       .  A
O462       Co482   1.955       .  S
O463        C471   1.267       .  A
O463       Co483   2.022       .  S
O464        C472   1.269       .  A
O464       Co484   2.034       .  S
O465        C471   1.264       .  A
O465       Co482   1.980       .  S
O466        C472   1.262       .  A
O466       Co481   1.981       .  S
O467        C470   1.274       .  A
O467       Co484   2.008       .  S
O468        C469   1.275       .  A
O468       Co483   2.013       .  S
C469       C1696   1.451       .  S
C470       C1155   1.450       .  S
C471       C1168   1.481       .  S
C472       C1219   1.488       .  S
O473        C486   1.276       .  A
O473       Co481   2.019       .  S
O474        C487   1.275       .  A
O474       Co482   2.004       .  S
O475        C488   1.265       .  A
O475       Co483   1.981       .  S
O476        C489   1.264       .  A
O476       Co484   1.987       .  S
O477        C489   1.268       .  A
O477       Co482   2.028       .  S
O478        C488   1.267       .  A
O478       Co481   2.021       .  S
O479        C486   1.261       .  A
O479       Co484   1.945       .  S
O480        C487   1.265       .  A
O480       Co483   1.964       .  S
Co481       O485   2.106       .  S
Co482       O485   2.104       .  S
Co483       O485   2.102       .  S
Co484       O485   2.103       .  S
C486       C1440   1.446       .  S
C487       C1136   1.457       .  S
C488       C1792   1.484       .  S
C489       C1184   1.489       .  S
O490        C498   1.276       .  A
O490       Co510   2.018       .  S
O491        C499   1.275       .  A
O491       Co511   2.009       .  S
O492        C500   1.262       .  A
O492       Co512   1.979       .  S
O493        C501   1.263       .  A
O493       Co513   1.981       .  S
O494        C500   1.268       .  A
O494       Co511   2.031       .  S
O495        C501   1.268       .  A
O495       Co510   2.033       .  S
O496        C499   1.265       .  A
O496       Co513   1.961       .  S
O497        C498   1.263       .  A
O497       Co512   1.952       .  S
C498       C1856   1.450       .  S
C499       C1536   1.456       .  S
C500       C1600   1.485       .  S
C501       C1779   1.487       .  S
O502        C515   1.265       .  A
O502       Co510   1.961       .  S
O503        C516   1.265       .  A
O503       Co511   1.958       .  S
O504        C517   1.268       .  A
O504       Co512   2.031       .  S
O505        C518   1.266       .  A
O505       Co513   2.022       .  S
O506        C518   1.266       .  A
O506       Co511   1.991       .  S
O507        C517   1.266       .  A
O507       Co510   1.994       .  S
O508        C515   1.276       .  A
O508       Co513   2.017       .  S
O509        C516   1.275       .  A
O509       Co512   2.010       .  S
Co510       O514   2.100       .  S
Co511       O514   2.110       .  S
Co512       O514   2.097       .  S
Co513       O514   2.103       .  S
C515       C1459   1.453       .  S
C516       C1123   1.454       .  S
C517       C2723   1.494       .  S
C518       C1379   1.491       .  S
C519        C520   1.419       .  A
C519        C524   1.423       .  A
C519       C2851   1.491       .  S
C520        C521   1.420       .  A
C520       C1075   1.499       .  S
C521        C522   1.424       .  A
C521       C1347   1.491       .  S
C522        C523   1.422       .  A
C522       C1107   1.496       .  S
C523        C524   1.420       .  A
C523       C1091   1.498       .  S
C524       C2451   1.489       .  S
O525        C533   1.272       .  A
O525       Co545   1.992       .  S
O526        C534   1.273       .  A
O526       Co546   2.018       .  S
O527        C535   1.266       .  A
O527       Co547   1.981       .  S
O528        C536   1.263       .  A
O528       Co548   1.977       .  S
O529        C535   1.269       .  A
O529       Co546   2.025       .  S
O530        C536   1.269       .  A
O530       Co545   2.027       .  S
O531        C534   1.260       .  A
O531       Co548   1.948       .  S
O532        C533   1.267       .  A
O532       Co547   1.977       .  S
C533       C1299   1.465       .  S
C534       C1139   1.447       .  S
C535       C1024   1.481       .  S
C536       C1043   1.482       .  S
O537        C550   1.264       .  A
O537       Co545   1.963       .  S
O538        C551   1.260       .  A
O538       Co546   1.953       .  S
O539        C552   1.268       .  A
O539       Co547   2.019       .  S
O540        C553   1.270       .  A
O540       Co548   2.038       .  S
O541        C553   1.261       .  A
O541       Co546   1.974       .  S
O542        C552   1.268       .  A
O542       Co545   1.987       .  S
O543        C550   1.272       .  A
O543       Co548   2.001       .  S
O544        C551   1.273       .  A
O544       Co547   2.021       .  S
Co545       O549   2.103       .  S
Co546       O549   2.093       .  S
Co547       O549   2.109       .  S
Co548       O549   2.105       .  S
C550        C995   1.458       .  S
C551       C1011   1.446       .  S
C552       C1104   1.482       .  S
C553       C1056   1.486       .  S
C554        C555   1.425       .  A
C554        C559   1.419       .  A
C554       C1904   1.495       .  S
C555        C556   1.425       .  A
C555       C2867   1.496       .  S
C556        C557   1.419       .  A
C556        C960   1.493       .  S
C557        C558   1.420       .  A
C557       C1187   1.494       .  S
C558        C559   1.420       .  A
C558       C1059   1.493       .  S
C559        C979   1.490       .  S
C560        C561   1.422       .  A
C560        C565   1.420       .  A
C560       C2691   1.493       .  S
C561        C562   1.422       .  A
C561       C2003   1.493       .  S
C562        C563   1.421       .  A
C562        C944   1.498       .  S
C563        C564   1.423       .  A
C563       C2163   1.488       .  S
C564        C565   1.420       .  A
C564       C1267   1.500       .  S
C565        C928   1.492       .  S
O566        C574   1.260       .  A
O566       Co586   1.942   1_565  S
O567        C575   1.269   1_565  A
O567       Co587   1.974       .  S
O568        C576   1.267       .  A
O568       Co588   2.021       .  S
O569        C577   1.268       .  A
O569       Co589   2.037       .  S
O570        C576   1.267       .  A
O570       Co587   1.999       .  S
O571        C577   1.263       .  A
O571       Co586   1.983       .  S
O572        C575   1.274       .  A
O572       Co589   1.995       .  S
O573        C574   1.276       .  A
O573       Co588   2.024       .  S
C574       C2528   1.446       .  S
C575       C1120   1.464       .  S
C576       C2195   1.493       .  S
C577       C1619   1.490       .  S
O578        C591   1.275       .  A
O578       Co586   2.011       .  S
O579        C592   1.276       .  A
O579       Co587   2.025       .  S
O580        C593   1.258   1_565  A
O580       Co588   1.972       .  S
O581        C594   1.264   1_545  A
O581       Co589   1.980       .  S
O582        C594   1.268       .  A
O582       Co587   2.027       .  S
O583        C593   1.268       .  A
O583       Co586   2.040       .  S
O584        C591   1.262       .  A
O584       Co589   1.957       .  S
O585        C592   1.261       .  A
O585       Co588   1.947       .  S
Co586       O590   2.108   1_545  S
Co587       O590   2.115       .  S
Co588       O590   2.091       .  S
Co589       O590   2.097   1_545  S
C591       C2915   1.455       .  S
C592       C2592   1.447       .  S
C593       C3024   1.483       .  S
C594       C2739   1.486       .  S
O595        C603   1.261       .  A
O595       Co615   1.944       .  S
O596        C604   1.267       .  A
O596       Co616   1.956       .  S
O597        C605   1.264       .  A
O597       Co617   2.016       .  S
O598        C606   1.266       .  A
O598       Co618   2.036       .  S
O599        C605   1.266       .  A
O599       Co616   1.990       .  S
O600        C606   1.259       .  A
O600       Co615   1.972       .  S
O601        C604   1.276       .  A
O601       Co618   2.013       .  S
O602        C603   1.279       .  A
O602       Co617   2.030       .  S
C603       C1939   1.444       .  S
C604        C992   1.450       .  S
C605        C912   1.487       .  S
C606        C899   1.486       .  S
O607        C620   1.278       .  A
O607       Co615   2.025       .  S
O608        C621   1.278       .  A
O608       Co616   2.011       .  S
O609        C622   1.261       .  A
O609       Co617   1.981       .  S
O610        C623   1.260       .  A
O610       Co618   1.979       .  S
O611        C623   1.265       .  A
O611       Co616   2.025       .  S
O612        C622   1.263       .  A
O612       Co615   2.022       .  S
O613        C620   1.260       .  A
O613       Co618   1.941       .  S
O614        C621   1.266       .  A
O614       Co617   1.961       .  S
Co615       O619   2.097       .  S
Co616       O619   2.110       .  S
Co617       O619   2.098       .  S
Co618       O619   2.101       .  S
C620       C1504   1.441       .  S
C621       C1843   1.455       .  S
C622       C2067   1.483       .  S
C623        C976   1.486       .  S
C624        C625   1.413       .  A
C624        C629   1.413       .  A
C624       C2307   1.488       .  S
C625        C626   1.420   1_455  A
C625       C2675   1.494       .  S
C626        C627   1.422       .  A
C626       C1971   1.477       .  S
C627        C628   1.415       .  A
C627        C915   1.493       .  S
C628        C629   1.415   1_655  A
C628       C1888   1.493       .  S
C629        C880   1.475       .  S
O630        C638   1.271       .  A
O630       Co650   1.989       .  S
O631        C639   1.275       .  A
O631       Co651   2.008       .  S
O632        C640   1.268       .  A
O632       Co652   1.989       .  S
O633        C641   1.266       .  A
O633       Co653   1.987       .  S
O634        C640   1.269       .  A
O634       Co651   2.028       .  S
O635        C641   1.271       .  A
O635       Co650   2.040       .  S
O636        C639   1.263   1_554  A
O636       Co653   1.963       .  S
O637        C638   1.265       .  A
O637       Co652   1.969   1_554  S
C638       C2403   1.453       .  S
C639       C2112   1.458       .  S
C640        C947   1.492       .  S
C641       C1088   1.495       .  S
O642        C655   1.260       .  A
O642       Co650   1.955       .  S
O643        C656   1.264       .  A
O643       Co651   1.968       .  S
O644        C657   1.269       .  A
O644       Co652   2.027       .  S
O645        C658   1.269       .  A
O645       Co653   2.030       .  S
O646        C658   1.264   1_556  A
O646       Co651   1.980       .  S
O647        C657   1.265       .  A
O647       Co650   1.979   1_556  S
O648        C655   1.273       .  A
O648       Co653   2.017       .  S
O649        C656   1.274       .  A
O649       Co652   2.007       .  S
Co650       O654   2.094       .  S
Co651       O654   2.097   1_556  S
Co652       O654   2.106   1_556  S
Co653       O654   2.107       .  S
C655       C1008   1.446       .  S
C656       C1955   1.460       .  S
C657        C848   1.483       .  S
C658        C864   1.483       .  S
C659        C660   1.415       .  A
C659        C664   1.418       .  A
C659       C1027   1.487       .  S
C660        C661   1.417   1_554  A
C660        C867   1.491       .  S
C661        C662   1.416       .  A
C661       C2147   1.481       .  S
C662        C663   1.417       .  A
C662        C832   1.493       .  S
C663        C664   1.421   1_556  A
C663       C1728   1.487       .  S
C664       C1171   1.489       .  S
O665        C673   1.265   1_554  A
O665       Co685   1.956       .  S
O666        C674   1.266       .  A
O666       Co686   1.963   1_554  S
O667        C675   1.266       .  A
O667       Co687   2.019       .  S
O668        C676   1.266       .  A
O668       Co688   2.022       .  S
O669        C675   1.263       .  A
O669       Co686   1.978       .  S
O670        C676   1.263       .  A
O670       Co685   1.992       .  S
O671        C674   1.275       .  A
O671       Co688   2.003       .  S
O672        C673   1.276       .  A
O672       Co687   2.018       .  S
C673       C2944   1.451       .  S
C674       C1152   1.460       .  S
C675       C2035   1.482       .  S
C676        C963   1.488       .  S
O677        C690   1.277       .  A
O677       Co685   2.020       .  S
O678        C691   1.276       .  A
O678       Co686   2.013       .  S
O679        C692   1.262   1_556  A
O679       Co687   1.977       .  S
O680        C693   1.264   1_554  A
O680       Co688   1.986       .  S
O681        C693   1.265       .  A
O681       Co686   2.021       .  S
O682        C692   1.267       .  A
O682       Co685   2.031       .  S
O683        C690   1.260       .  A
O683       Co688   1.940       .  S
O684        C691   1.265       .  A
O684       Co687   1.956       .  S
Co685       O689   2.107       .  S
Co686       O689   2.100   1_556  S
Co687       O689   2.105   1_556  S
Co688       O689   2.104       .  S
C690       C2803   1.443       .  S
C691       C1235   1.452       .  S
C692       C3011   1.486       .  S
C693       C1203   1.485       .  S
O694        C702   1.273       .  A
O694       Co714   2.005       .  S
O695        C703   1.271       .  A
O695       Co715   1.995       .  S
O696        C704   1.266       .  A
O696       Co716   1.984       .  S
O697        C705   1.262       .  A
O697       Co717   1.973       .  S
O698        C704   1.274       .  A
O698       Co715   2.049       .  S
O699        C705   1.270       .  A
O699       Co714   2.035       .  S
O700        C703   1.262       .  A
O700       Co717   1.964       .  S
O701        C702   1.266       .  A
O701       Co716   1.973       .  S
C702       C2259   1.465       .  S
C703       C1664   1.452       .  S
C704       C1635   1.501       .  S
C705       C2211   1.485       .  S
O706        C719   1.261       .  A
O706       Co714   1.961       .  S
O707        C720   1.257       .  A
O707       Co715   1.945       .  S
O708        C721   1.268       .  A
O708       Co716   2.027       .  S
O709        C722   1.269       .  A
O709       Co717   2.032       .  S
O710        C722   1.264       .  A
O710       Co715   1.987       .  S
O711        C721   1.263       .  A
O711       Co714   1.975       .  S
O712        C719   1.274       .  A
O712       Co717   2.026       .  S
O713        C720   1.272       .  A
O713       Co716   2.015       .  S
Co714       O718   2.102       .  S
Co715       O718   2.100       .  S
Co716       O718   2.115       .  S
Co717       O718   2.105       .  S
C719       C2131   1.456       .  S
C720       C1552   1.438       .  S
C721        C819   1.481       .  S
C722        C835   1.491       .  S
O723        C731   1.268       .  A
O723       Co743   1.989       .  S
O724        C732   1.269       .  A
O724       Co744   1.992       .  S
O725        C733   1.267       .  A
O725       Co745   1.979       .  S
O726        C734   1.268       .  A
O726       Co746   1.981       .  S
O727        C733   1.273       .  A
O727       Co744   2.036       .  S
O728        C734   1.274       .  A
O728       Co743   2.041       .  S
O729        C732   1.262       .  A
O729       Co746   1.968       .  S
O730        C731   1.263       .  A
O730       Co745   1.973       .  S
C731       C2816   1.460       .  S
C732       C1251   1.455       .  S
C733       C1363   1.485       .  S
C734       C2707   1.492       .  S
O735        C748   1.262       .  A
O735       Co743   1.968       .  S
O736        C749   1.260       .  A
O736       Co744   1.963       .  S
O737        C750   1.272       .  A
O737       Co745   2.034       .  S
O738        C751   1.272       .  A
O738       Co746   2.032       .  S
O739        C751   1.267       .  A
O739       Co744   1.981       .  S
O740        C750   1.269       .  A
O740       Co743   1.983       .  S
O741        C748   1.270       .  A
O741       Co746   1.995       .  S
O742        C749   1.270       .  A
O742       Co745   1.999       .  S
Co743       O747   2.101       .  S
Co744       O747   2.102       .  S
Co745       O747   2.107       .  S
Co746       O747   2.102       .  S
C748       C2640   1.457       .  S
C749       C1312   1.453       .  S
C750       C1072   1.489       .  S
C751        C931   1.485       .  S
O752        C760   1.259       .  A
O752       Co772   1.959       .  S
O753        C761   1.259       .  A
O753       Co773   1.960       .  S
O754        C762   1.273       .  A
O754       Co774   2.041       .  S
O755        C763   1.267       .  A
O755       Co775   2.011       .  S
O756        C762   1.265       .  A
O756       Co773   1.977       .  S
O757        C763   1.265       .  A
O757       Co772   1.979       .  S
O758        C761   1.273       .  A
O758       Co775   2.023       .  S
O759        C760   1.269       .  A
O759       Co774   1.999       .  S
C760       C2419   1.448       .  S
C761       C1875   1.456       .  S
C762        C803   1.488       .  S
C763        C883   1.473       .  S
O764        C777   1.270       .  A
O764       Co772   2.001       .  S
O765        C778   1.270       .  A
O765       Co773   1.992       .  S
O766        C779   1.268       .  A
O766       Co774   1.986       .  S
O767        C780   1.264       .  A
O767       Co775   1.972       .  S
O768        C780   1.274       .  A
O768       Co773   2.044       .  S
O769        C779   1.273       .  A
O769       Co772   2.040       .  S
O770        C777   1.264       .  A
O770       Co775   1.969       .  S
O771        C778   1.264       .  A
O771       Co774   1.969       .  S
Co772       O776   2.104       .  S
Co773       O776   2.093       .  S
Co774       O776   2.107       .  S
Co775       O776   2.100       .  S
C777       C2243   1.460       .  S
C778       C1680   1.461       .  S
C779       C2371   1.491       .  S
C780       C1760   1.486       .  S
C781        C782   1.422       .  A
C781        C786   1.423       .  A
C781        C816   1.491       .  S
C782        C783   1.421       .  A
C782       C2291   1.496       .  S
C783        C784   1.419       .  A
C783       C1331   1.492       .  S
C784        C785   1.418       .  A
C784       C1040   1.487       .  S
C785        C786   1.420       .  A
C785        C896   1.492       .  S
C786       C1571   1.493       .  S
C787        C788   1.421   1_655  A
C787        C792   1.418       .  A
C787       C1987   1.493       .  S
C788        C789   1.423   1_556  A
C788       C2979   1.496       .  S
C789        C790   1.422       .  A
C789       C1712   1.488       .  S
C790        C791   1.418   1_455  A
C790        C800   1.494       .  S
C791        C792   1.416   1_554  A
C791       C2435   1.492       .  S
C792        C851   1.486       .  S
C793        C798   1.386       .  A
C793        C794   1.408       .  A
C793        S799   1.717       .  A
C794        C795   1.409       .  A
C794        H805   1.083       .  S
C795        C804   1.378       .  A
C795        C796   1.386       .  A
C796        C797   1.407       .  A
C796        S802   1.715       .  A
C797        C798   1.408       .  A
C797        H806   1.083       .  S
C798        C801   1.377       .  A
S799        C800   1.724       .  A
C800        C801   1.390       .  A
C801        H807   1.083   1_455  S
S802        C803   1.727       .  A
C803        C804   1.393       .  A
C804        H808   1.083       .  S
C809        C814   1.387       .  A
C809        C810   1.404       .  A
C809        S815   1.706       .  A
C810        C811   1.404       .  A
C810        H821   1.083       .  S
C811        C820   1.377       .  A
C811        C812   1.386       .  A
C812        C813   1.409       .  A
C812        S818   1.712       .  A
C813        C814   1.407       .  A
C813        H822   1.083       .  S
C814        C817   1.381       .  A
S815        C816   1.724       .  A
C816        C817   1.390       .  A
C817        H823   1.083       .  S
S818        C819   1.727       .  A
C819        C820   1.389       .  A
C820        H824   1.083       .  S
C825        C830   1.387       .  A
C825        C826   1.409       .  A
C825        S831   1.711       .  A
C826        C827   1.408       .  A
C826        H837   1.083       .  S
C827        C836   1.384       .  A
C827        C828   1.386       .  A
C828        C829   1.409       .  A
C828        S834   1.711       .  A
C829        C830   1.407       .  A
C829        H838   1.083       .  S
C830        C833   1.383       .  A
S831        C832   1.725       .  A
C832        C833   1.389       .  A
C833        H839   1.083       .  S
S834        C835   1.729       .  A
C835        C836   1.393       .  A
C836        H840   1.083       .  S
C841        C846   1.386       .  A
C841        C842   1.409       .  A
C841        S847   1.712       .  A
C842        C843   1.407       .  A
C842        H853   1.083       .  S
C843        C852   1.382       .  A
C843        C844   1.387       .  A
C844        C845   1.404   1_556  A
C844        S850   1.705   1_556  A
C845        C846   1.403   1_554  A
C845        H854   1.083       .  S
C846        C849   1.378       .  A
S847        C848   1.728       .  A
C848        C849   1.389       .  A
C849        H855   1.083   1_556  S
S850        C851   1.722   1_554  A
C851        C852   1.389       .  A
C852        H856   1.083       .  S
C857        C862   1.386       .  A
C857        C858   1.405       .  A
C857        S863   1.715       .  A
C858        C859   1.407       .  A
C858        H869   1.084   1_554  S
C859        C868   1.374       .  A
C859        C860   1.386       .  A
C860        C861   1.405       .  A
C860        S866   1.715       .  A
C861        C862   1.407       .  A
C861        H870   1.084       .  S
C862        C865   1.374       .  A
S863        C864   1.725       .  A
C864        C865   1.391       .  A
C865        H871   1.084       .  S
S866        C867   1.724       .  A
C867        C868   1.388       .  A
C868        H872   1.084   1_554  S
C873        C878   1.388       .  A
C873        C874   1.405       .  A
C873        S879   1.705       .  A
C874        C875   1.404       .  A
C874        H885   1.083       .  S
C875        C884   1.377       .  A
C875        C876   1.387       .  A
C876        C877   1.401       .  A
C876        S882   1.700       .  A
C877        C878   1.399       .  A
C877        H886   1.083       .  S
C878        C881   1.373       .  A
S879        C880   1.722       .  A
C880        C881   1.381       .  A
C881        H887   1.083       .  S
S882        C883   1.724       .  A
C883        C884   1.388       .  A
C884        H888   1.083       .  S
C889        C894   1.387       .  A
C889        C890   1.404       .  A
C889        S895   1.707       .  A
C890        C891   1.403       .  A
C890        H901   1.083       .  S
C891        C900   1.376       .  A
C891        C892   1.386       .  A
C892        C893   1.410       .  A
C892        S898   1.715       .  A
C893        C894   1.409       .  A
C893        H902   1.083       .  S
C894        C897   1.381       .  A
S895        C896   1.722       .  A
C896        C897   1.391       .  A
C897        H903   1.082       .  S
S898        C899   1.729       .  A
C899        C900   1.389       .  A
C900        H904   1.083       .  S
C905        C910   1.386       .  A
C905        C906   1.411       .  A
C905        S911   1.712       .  A
C906        C907   1.409       .  A
C906        H917   1.083       .  S
C907        C916   1.384       .  A
C907        C908   1.387       .  A
C908        C909   1.406       .  A
C908        S914   1.708       .  A
C909        C910   1.405       .  A
C909        H918   1.083       .  S
C910        C913   1.382       .  A
S911        C912   1.730       .  A
C912        C913   1.389       .  A
C913        H919   1.083       .  S
S914        C915   1.724       .  A
C915        C916   1.391       .  A
C916        H920   1.083       .  S
C921        C926   1.387       .  A
C921        C922   1.408       .  A
C921        S927   1.709       .  A
C922        C923   1.407       .  A
C922        H933   1.083       .  S
C923        C932   1.381       .  A
C923        C924   1.386       .  A
C924        C925   1.407       .  A
C924        S930   1.709       .  A
C925        C926   1.406       .  A
C925        H934   1.083       .  S
C926        C929   1.380       .  A
S927        C928   1.726       .  A
C928        C929   1.389       .  A
C929        H935   1.082       .  S
S930        C931   1.727       .  A
C931        C932   1.392       .  A
C932        H936   1.083       .  S
C937        C942   1.386       .  A
C937        C938   1.410       .  A
C937        S943   1.712       .  A
C938        C939   1.408       .  A
C938        H949   1.083       .  S
C939        C948   1.385       .  A
C939        C940   1.386       .  A
C940        C941   1.411       .  A
C940        S946   1.713       .  A
C941        C942   1.409       .  A
C941        H950   1.083       .  S
C942        C945   1.384       .  A
S943        C944   1.726       .  A
C944        C945   1.392       .  A
C945        H951   1.083       .  S
S946        C947   1.730       .  A
C947        C948   1.393       .  A
C948        H952   1.083       .  S
C953        C958   1.387       .  A
C953        C954   1.408       .  A
C953        S959   1.710       .  A
C954        C955   1.407       .  A
C954        H965   1.083       .  S
C955        C964   1.383       .  A
C955        C956   1.386       .  A
C956        C957   1.408       .  A
C956        S962   1.709       .  A
C957        C958   1.406       .  A
C957        H966   1.083       .  S
C958        C961   1.381       .  A
S959        C960   1.725       .  A
C960        C961   1.390       .  A
C961        H967   1.082       .  S
S962        C963   1.728       .  A
C963        C964   1.392       .  A
C964        H968   1.083       .  S
C969        C974   1.386       .  A
C969        C970   1.410       .  A
C969        S975   1.714       .  A
C970        C971   1.409       .  A
C970        H981   1.083       .  S
C971        C980   1.382       .  A
C971        C972   1.387       .  A
C972        C973   1.405       .  A
C972        S978   1.707       .  A
C973        C974   1.404       .  A
C973        H982   1.083       .  S
C974        C977   1.378       .  A
S975        C976   1.729       .  A
C976        C977   1.389       .  A
C977        H983   1.083       .  S
S978        C979   1.722       .  A
C979        C980   1.390       .  A
C980        H984   1.083       .  S
C985        C990   1.388       .  A
C985        C986   1.389       .  A
C985        S991   1.689       .  A
C986        C987   1.391       .  A
C986        H997   1.083       .  S
C987        C996   1.353       .  A
C987        C988   1.386       .  A
C988        C989   1.401       .  A
C988        S994   1.711       .  A
C989        C990   1.403       .  A
C989        H998   1.082       .  S
C990        C993   1.368       .  A
S991        C992   1.715       .  A
C992        C993   1.383       .  A
C993        H999   1.083       .  S
S994        C995   1.722       .  A
C995        C996   1.381       .  A
C996       H1000   1.084       .  S
C1001      C1006   1.389       .  A
C1001      C1002   1.397       .  A
C1001      S1007   1.710       .  A
C1002      C1003   1.401       .  A
C1002      H1013   1.083       .  S
C1003      C1012   1.360       .  A
C1003      C1004   1.389       .  A
C1004      C1005   1.393       .  A
C1004      S1010   1.705       .  A
C1005      C1006   1.397       .  A
C1005      H1014   1.083       .  S
C1006      C1009   1.356       .  A
S1007      C1008   1.716       .  A
C1008      C1009   1.378       .  A
C1009      H1015   1.084       .  S
S1010      C1011   1.713       .  A
C1011      C1012   1.380       .  A
C1012      H1016   1.084       .  S
C1017      C1022   1.387       .  A
C1017      C1018   1.406       .  A
C1017      S1023   1.707       .  A
C1018      C1019   1.405       .  A
C1018      H1029   1.083       .  S
C1019      C1028   1.379       .  A
C1019      C1020   1.387       .  A
C1020      C1021   1.404       .  A
C1020      S1026   1.706       .  A
C1021      C1022   1.403       .  A
C1021      H1030   1.083       .  S
C1022      C1025   1.377       .  A
S1023      C1024   1.728       .  A
C1024      C1025   1.388       .  A
C1025      H1031   1.083       .  S
S1026      C1027   1.723       .  A
C1027      C1028   1.388       .  A
C1028      H1032   1.083       .  S
C1033      C1038   1.386       .  A
C1033      C1034   1.406       .  A
C1033      S1039   1.716       .  A
C1034      C1035   1.407       .  A
C1034      H1045   1.083       .  S
C1035      C1044   1.375       .  A
C1035      C1036   1.386       .  A
C1036      C1037   1.404       .  A
C1036      S1042   1.713       .  A
C1037      C1038   1.406       .  A
C1037      H1046   1.083       .  S
C1038      C1041   1.373       .  A
S1039      C1040   1.723       .  A
C1040      C1041   1.387       .  A
C1041      H1047   1.083       .  S
S1042      C1043   1.725       .  A
C1043      C1044   1.391       .  A
C1044      H1048   1.083       .  S
C1049      C1054   1.386       .  A
C1049      C1050   1.406       .  A
C1049      S1055   1.714       .  A
C1050      C1051   1.407       .  A
C1050      H1061   1.083       .  S
C1051      C1060   1.374       .  A
C1051      C1052   1.386       .  A
C1052      C1053   1.407       .  A
C1052      S1058   1.717       .  A
C1053      C1054   1.408       .  A
C1053      H1062   1.083       .  S
C1054      C1057   1.377       .  A
S1055      C1056   1.727       .  A
C1056      C1057   1.392       .  A
C1057      H1063   1.083       .  S
S1058      C1059   1.725       .  A
C1059      C1060   1.390       .  A
C1060      H1064   1.083       .  S
C1065      C1070   1.386       .  A
C1065      C1066   1.412       .  A
C1065      S1071   1.715       .  A
C1066      C1067   1.411       .  A
C1066      H1077   1.083       .  S
C1067      C1076   1.386       .  A
C1067      C1068   1.386       .  A
C1068      C1069   1.407       .  A
C1068      S1074   1.710       .  A
C1069      C1070   1.405       .  A
C1069      H1078   1.083       .  S
C1070      C1073   1.381       .  A
S1071      C1072   1.731       .  A
C1072      C1073   1.390       .  A
C1073      H1079   1.083       .  S
S1074      C1075   1.724       .  A
C1075      C1076   1.394       .  A
C1076      H1080   1.082       .  S
C1081      C1086   1.386       .  A
C1081      C1082   1.412       .  A
C1081      S1087   1.715       .  A
C1082      C1083   1.410       .  A
C1082      H1093   1.083       .  S
C1083      C1092   1.387       .  A
C1083      C1084   1.386       .  A
C1084      C1085   1.410       .  A
C1084      S1090   1.712       .  A
C1085      C1086   1.409       .  A
C1085      H1094   1.083       .  S
C1086      C1089   1.385       .  A
S1087      C1088   1.730       .  A
C1088      C1089   1.394       .  A
C1089      H1095   1.083       .  S
S1090      C1091   1.726       .  A
C1091      C1092   1.392       .  A
C1092      H1096   1.082       .  S
C1097      C1102   1.386       .  A
C1097      C1098   1.408       .  A
C1097      S1103   1.709       .  A
C1098      C1099   1.406       .  A
C1098      H1109   1.083       .  S
C1099      C1108   1.381       .  A
C1099      C1100   1.386       .  A
C1100      C1101   1.407       .  A
C1100      S1106   1.707       .  A
C1101      C1102   1.406       .  A
C1101      H1110   1.083       .  S
C1102      C1105   1.381       .  A
S1103      C1104   1.727       .  A
C1104      C1105   1.390       .  A
C1105      H1111   1.083       .  S
S1106      C1107   1.728       .  A
C1107      C1108   1.390       .  A
C1108      H1112   1.082       .  S
C1113      C1118   1.385       .  A
C1113      C1114   1.407       .  A
C1113      S1119   1.719       .  A
C1114      C1115   1.409       .  A
C1114      H1125   1.082       .  S
C1115      C1124   1.372       .  A
C1115      C1116   1.388       .  A
C1116      C1117   1.385       .  A
C1116      S1122   1.688       .  A
C1117      C1118   1.388       .  A
C1117      H1126   1.083       .  S
C1118      C1121   1.348       .  A
S1119      C1120   1.726       .  A
C1120      C1121   1.380       .  A
C1121      H1127   1.084       .  S
S1122      C1123   1.713       .  A
C1123      C1124   1.388       .  A
C1124      H1128   1.083       .  S
C1129      C1134   1.386       .  A
C1129      C1130   1.402       .  A
C1129      S1135   1.714       .  A
C1130      C1131   1.405       .  A
C1130      H1141   1.083       .  S
C1131      C1140   1.367       .  A
C1131      C1132   1.388       .  A
C1132      C1133   1.387       .  A
C1132      S1138   1.691       .  A
C1133      C1134   1.390       .  A
C1133      H1142   1.083       .  S
C1134      C1137   1.350       .  A
S1135      C1136   1.722       .  A
C1136      C1137   1.379       .  A
C1137      H1143   1.084       .  S
S1138      C1139   1.710       .  A
C1139      C1140   1.384       .  A
C1140      H1144   1.083       .  S
C1145      C1150   1.385       .  A
C1145      C1146   1.404       .  A
C1145      S1151   1.714       .  A
C1146      C1147   1.406       .  A
C1146      H1157   1.083       .  S
C1147      C1156   1.369       .  A
C1147      C1148   1.389       .  A
C1148      C1149   1.387       .  A
C1148      S1154   1.689       .  A
C1149      C1150   1.390       .  A
C1149      H1158   1.083       .  S
C1150      C1153   1.351       .  A
S1151      C1152   1.725       .  A
C1152      C1153   1.380       .  A
C1153      H1159   1.084       .  S
S1154      C1155   1.714       .  A
C1155      C1156   1.385       .  A
C1156      H1160   1.083       .  S
C1161      C1166   1.386       .  A
C1161      C1162   1.404       .  A
C1161      S1167   1.714       .  A
C1162      C1163   1.405       .  A
C1162      H1173   1.083       .  S
C1163      C1172   1.372       .  A
C1163      C1164   1.386       .  A
C1164      C1165   1.405       .  A
C1164      S1170   1.714       .  A
C1165      C1166   1.407       .  A
C1165      H1174   1.083       .  S
C1166      C1169   1.373       .  A
S1167      C1168   1.723       .  A
C1168      C1169   1.392       .  A
C1169      H1175   1.083       .  S
S1170      C1171   1.724       .  A
C1171      C1172   1.387       .  A
C1172      H1176   1.083   1_554  S
C1177      C1182   1.386       .  A
C1177      C1178   1.411       .  A
C1177      S1183   1.714       .  A
C1178      C1179   1.409       .  A
C1178      H1189   1.083       .  S
C1179      C1188   1.385       .  A
C1179      C1180   1.387       .  A
C1180      C1181   1.407       .  A
C1180      S1186   1.709       .  A
C1181      C1182   1.406       .  A
C1181      H1190   1.083       .  S
C1182      C1185   1.381       .  A
S1183      C1184   1.729       .  A
C1184      C1185   1.391       .  A
C1185      H1191   1.083       .  S
S1186      C1187   1.724       .  A
C1187      C1188   1.392       .  A
C1188      H1192   1.082       .  S
C1193      C1198   1.387   1_554  A
C1193      C1194   1.409       .  A
C1193      S1199   1.710       .  A
C1194      C1195   1.408   1_554  A
C1194      H1205   1.083       .  S
C1195      C1204   1.383   1_556  A
C1195      C1196   1.387       .  A
C1196      C1197   1.405       .  A
C1196      S1202   1.704       .  A
C1197      C1198   1.403       .  A
C1197      H1206   1.083       .  S
C1198      C1201   1.379       .  A
S1199      C1200   1.727   1_554  A
C1200      C1201   1.386       .  A
C1201      H1207   1.083       .  S
S1202      C1203   1.727       .  A
C1203      C1204   1.392   1_556  A
C1204      H1208   1.083       .  S
C1209      C1214   1.386       .  A
C1209      C1210   1.407       .  A
C1209      S1215   1.717       .  A
C1210      C1211   1.408       .  A
C1210      H1221   1.083       .  S
C1211      C1220   1.377       .  A
C1211      C1212   1.386       .  A
C1212      C1213   1.406       .  A
C1212      S1218   1.715       .  A
C1213      C1214   1.407       .  A
C1213      H1222   1.083       .  S
C1214      C1217   1.375       .  A
S1215      C1216   1.725       .  A
C1216      C1217   1.389       .  A
C1217      H1223   1.083       .  S
S1218      C1219   1.726       .  A
C1219      C1220   1.392       .  A
C1220      H1224   1.083       .  S
C1225      C1230   1.386       .  A
C1225      C1226   1.405       .  A
C1225      S1231   1.715       .  A
C1226      C1227   1.408       .  A
C1226      H1237   1.082       .  S
C1227      C1236   1.371       .  A
C1227      C1228   1.388       .  A
C1228      C1229   1.385       .  A
C1228      S1234   1.686       .  A
C1229      C1230   1.388       .  A
C1229      H1238   1.083       .  S
C1230      C1233   1.349       .  A
S1231      C1232   1.725       .  A
C1232      C1233   1.378       .  A
C1233      H1239   1.084       .  S
S1234      C1235   1.711       .  A
C1235      C1236   1.387       .  A
C1236      H1240   1.083       .  S
C1241      C1246   1.389       .  A
C1241      C1242   1.386       .  A
C1241      S1247   1.691       .  A
C1242      C1243   1.390       .  A
C1242      H1253   1.083       .  S
C1243      C1252   1.349       .  A
C1243      C1244   1.387       .  A
C1244      C1245   1.401       .  A
C1244      S1250   1.714       .  A
C1245      C1246   1.405       .  A
C1245      H1254   1.082       .  S
C1246      C1249   1.365       .  A
S1247      C1248   1.709       .  A
C1248      C1249   1.383       .  A
C1249      H1255   1.083   1_565  S
S1250      C1251   1.721       .  A
C1251      C1252   1.378       .  A
C1252      H1256   1.084       .  S
C1257      C1262   1.385       .  A
C1257      C1258   1.407       .  A
C1257      S1263   1.718       .  A
C1258      C1259   1.408       .  A
C1258      H1269   1.083       .  S
C1259      C1268   1.377       .  A
C1259      C1260   1.385       .  A
C1260      C1261   1.409       .  A
C1260      S1266   1.719       .  A
C1261      C1262   1.411       .  A
C1261      H1270   1.083       .  S
C1262      C1265   1.379       .  A
S1263      C1264   1.726       .  A
C1264      C1265   1.395       .  A
C1265      H1271   1.083       .  S
S1266      C1267   1.728       .  A
C1267      C1268   1.391       .  A
C1268      H1272   1.083       .  S
C1273      C1278   1.386       .  A
C1273      C1274   1.404       .  A
C1273      S1279   1.714       .  A
C1274      C1275   1.406       .  A
C1274      H1285   1.083       .  S
C1275      C1284   1.372       .  A
C1275      C1276   1.386       .  A
C1276      C1277   1.407       .  A
C1276      S1282   1.718   1_565  A
C1277      C1278   1.408       .  A
C1277      H1286   1.083   1_565  S
C1278      C1281   1.375       .  A
S1279      C1280   1.724       .  A
C1280      C1281   1.390       .  A
C1281      H1287   1.083       .  S
S1282      C1283   1.726   1_545  A
C1283      C1284   1.391       .  A
C1284      H1288   1.083       .  S
C1289      C1294   1.388       .  A
C1289      C1290   1.385       .  A
C1289      S1295   1.691       .  A
C1290      C1291   1.389       .  A
C1290      H1301   1.084       .  S
C1291      C1300   1.349       .  A
C1291      C1292   1.385       .  A
C1292      C1293   1.407       .  A
C1292      S1298   1.721       .  A
C1293      C1294   1.410       .  A
C1293      H1302   1.083       .  S
C1294      C1297   1.372       .  A
S1295      C1296   1.712       .  A
C1296      C1297   1.388       .  A
C1297      H1303   1.083       .  S
S1298      C1299   1.726       .  A
C1299      C1300   1.380       .  A
C1300      H1304   1.084       .  S
C1305      C1310   1.387       .  A
C1305      C1306   1.401       .  A
C1305      S1311   1.712       .  A
C1306      C1307   1.404       .  A
C1306      H1317   1.083       .  S
C1307      C1316   1.365       .  A
C1307      C1308   1.389       .  A
C1308      C1309   1.387       .  A
C1308      S1314   1.693       .  A
C1309      C1310   1.391       .  A
C1309      H1318   1.083       .  S
C1310      C1313   1.351       .  A
S1311      C1312   1.720       .  A
C1312      C1313   1.378       .  A
C1313      H1319   1.084       .  S
S1314      C1315   1.709       .  A
C1315      C1316   1.383       .  A
C1316      H1320   1.083       .  S
C1321      C1326   1.386       .  A
C1321      C1322   1.402       .  A
C1321      S1327   1.708       .  A
C1322      C1323   1.403       .  A
C1322      H1333   1.083       .  S
C1323      C1332   1.372       .  A
C1323      C1324   1.386       .  A
C1324      C1325   1.409       .  A
C1324      S1330   1.717       .  A
C1325      C1326   1.409       .  A
C1325      H1334   1.083       .  S
C1326      C1329   1.379       .  A
S1327      C1328   1.723       .  A
C1328      C1329   1.392       .  A
C1329      H1335   1.083       .  S
S1330      C1331   1.727       .  A
C1331      C1332   1.386       .  A
C1332      H1336   1.083       .  S
C1337      C1342   1.386       .  A
C1337      C1338   1.405       .  A
C1337      S1343   1.716       .  A
C1338      C1339   1.407       .  A
C1338      H1349   1.083       .  S
C1339      C1348   1.373       .  A
C1339      C1340   1.386       .  A
C1340      C1341   1.404       .  A
C1340      S1346   1.714       .  A
C1341      C1342   1.406       .  A
C1341      H1350   1.083       .  S
C1342      C1345   1.372       .  A
S1343      C1344   1.725       .  A
C1344      C1345   1.390       .  A
C1345      H1351   1.083       .  S
S1346      C1347   1.726       .  A
C1347      C1348   1.388       .  A
C1348      H1352   1.083       .  S
C1353      C1358   1.387       .  A
C1353      C1354   1.405       .  A
C1353      S1359   1.707       .  A
C1354      C1355   1.405       .  A
C1354      H1365   1.083       .  S
C1355      C1364   1.379       .  A
C1355      C1356   1.386       .  A
C1356      C1357   1.410       .  A
C1356      S1362   1.713       .  A
C1357      C1358   1.408       .  A
C1357      H1366   1.083       .  S
C1358      C1361   1.383       .  A
S1359      C1360   1.725       .  A
C1360      C1361   1.392       .  A
C1361      H1367   1.083       .  S
S1362      C1363   1.728       .  A
C1363      C1364   1.390       .  A
C1364      H1368   1.083       .  S
C1369      C1374   1.386       .  A
C1369      C1370   1.408       .  A
C1369      S1375   1.719       .  A
C1370      C1371   1.410       .  A
C1370      H1381   1.083       .  S
C1371      C1380   1.377       .  A
C1371      C1372   1.385       .  A
C1372      C1373   1.407       .  A
C1372      S1378   1.719       .  A
C1373      C1374   1.409       .  A
C1373      H1382   1.083       .  S
C1374      C1377   1.377       .  A
S1375      C1376   1.727       .  A
C1376      C1377   1.390       .  A
C1377      H1383   1.083   1_545  S
S1378      C1379   1.726       .  A
C1379      C1380   1.395       .  A
C1380      H1384   1.083       .  S
C1385      C1390   1.386       .  A
C1385      C1386   1.408       .  A
C1385      S1391   1.718       .  A
C1386      C1387   1.409       .  A
C1386      H1397   1.083       .  S
C1387      C1396   1.379       .  A
C1387      C1388   1.386       .  A
C1388      C1389   1.407       .  A
C1388      S1394   1.716   1_545  A
C1389      C1390   1.408       .  A
C1389      H1398   1.083   1_545  S
C1390      C1393   1.377       .  A
S1391      C1392   1.726       .  A
C1392      C1393   1.391       .  A
C1393      H1399   1.083   1_545  S
S1394      C1395   1.727   1_565  A
C1395      C1396   1.393       .  A
C1396      H1400   1.083       .  S
C1401      C1406   1.386       .  A
C1401      C1402   1.406       .  A
C1401      S1407   1.717       .  A
C1402      C1403   1.408       .  A
C1402      H1413   1.083       .  S
C1403      C1412   1.376       .  A
C1403      C1404   1.385       .  A
C1404      C1405   1.408       .  A
C1404      S1410   1.719       .  A
C1405      C1406   1.410       .  A
C1405      H1414   1.083       .  S
C1406      C1409   1.377       .  A
S1407      C1408   1.724       .  A
C1408      C1409   1.391       .  A
C1409      H1415   1.083       .  S
S1410      C1411   1.727       .  A
C1411      C1412   1.392       .  A
C1412      H1416   1.083       .  S
C1417      C1422   1.385       .  A
C1417      C1418   1.404       .  A
C1417      S1423   1.716       .  A
C1418      C1419   1.407       .  A
C1418      H1429   1.083       .  S
C1419      C1428   1.370       .  A
C1419      C1420   1.388       .  A
C1420      C1421   1.385       .  A
C1420      S1426   1.687       .  A
C1421      C1422   1.388       .  A
C1421      H1430   1.084       .  S
C1422      C1425   1.348       .  A
S1423      C1424   1.725       .  A
C1424      C1425   1.380       .  A
C1425      H1431   1.084       .  S
S1426      C1427   1.714       .  A
C1427      C1428   1.386       .  A
C1428      H1432   1.083       .  S
C1433      C1438   1.389       .  A
C1433      C1434   1.388       .  A
C1433      S1439   1.692       .  A
C1434      C1435   1.391       .  A
C1434      H1445   1.083       .  S
C1435      C1444   1.352       .  A
C1435      C1436   1.388       .  A
C1436      C1437   1.400       .  A
C1436      S1442   1.711       .  A
C1437      C1438   1.403       .  A
C1437      H1446   1.083       .  S
C1438      C1441   1.365       .  A
S1439      C1440   1.711       .  A
C1440      C1441   1.382       .  A
C1441      H1447   1.083       .  S
S1442      C1443   1.719       .  A
C1443      C1444   1.378       .  A
C1444      H1448   1.084       .  S
C1449      C1454   1.388       .  A
C1449      C1450   1.392       .  A
C1449      S1455   1.699       .  A
C1450      C1451   1.395       .  A
C1450      H1461   1.083       .  S
C1451      C1460   1.356       .  A
C1451      C1452   1.388       .  A
C1452      C1453   1.400       .  A
C1452      S1458   1.713       .  A
C1453      C1454   1.403       .  A
C1453      H1462   1.083       .  S
C1454      C1457   1.366       .  A
S1455      C1456   1.713       .  A
C1456      C1457   1.383       .  A
C1457      H1463   1.083   1_545  S
S1458      C1459   1.718       .  A
C1459      C1460   1.379       .  A
C1460      H1464   1.084       .  S
C1465      C1470   1.386       .  A
C1465      C1466   1.408       .  A
C1465      S1471   1.719       .  A
C1466      C1467   1.410       .  A
C1466      H1477   1.083       .  S
C1467      C1476   1.377       .  A
C1467      C1468   1.385       .  A
C1468      C1469   1.407   1_545  A
C1468      S1474   1.718   1_545  A
C1469      C1470   1.408   1_565  A
C1469      H1478   1.083       .  S
C1470      C1473   1.375   1_545  A
S1471      C1472   1.725       .  A
C1472      C1473   1.390   1_545  A
C1473      H1479   1.083       .  S
S1474      C1475   1.726   1_565  A
C1475      C1476   1.395       .  A
C1476      H1480   1.083       .  S
C1481      C1486   1.386       .  A
C1481      C1482   1.409       .  A
C1481      S1487   1.713       .  A
C1482      C1483   1.408       .  A
C1482      H1493   1.083       .  S
C1483      C1492   1.382       .  A
C1483      C1484   1.387   1_565  A
C1484      C1485   1.406       .  A
C1484      S1490   1.709       .  A
C1485      C1486   1.406   1_545  A
C1485      H1494   1.083       .  S
C1486      C1489   1.379   1_565  A
S1487      C1488   1.727       .  A
C1488      C1489   1.391   1_565  A
C1489      H1495   1.083       .  S
S1490      C1491   1.724   1_545  A
C1491      C1492   1.389       .  A
C1492      H1496   1.083       .  S
C1497      C1502   1.389       .  A
C1497      C1498   1.388       .  A
C1497      S1503   1.693       .  A
C1498      C1499   1.391       .  A
C1498      H1509   1.083       .  S
C1499      C1508   1.350       .  A
C1499      C1500   1.388       .  A
C1500      C1501   1.398       .  A
C1500      S1506   1.709       .  A
C1501      C1502   1.401       .  A
C1501      H1510   1.083       .  S
C1502      C1505   1.362       .  A
S1503      C1504   1.710       .  A
C1504      C1505   1.381       .  A
C1505      H1511   1.084       .  S
S1506      C1507   1.718       .  A
C1507      C1508   1.377       .  A
C1508      H1512   1.084       .  S
C1513      C1518   1.385       .  A
C1513      C1514   1.404       .  A
C1513      S1519   1.715       .  A
C1514      C1515   1.407       .  A
C1514      H1525   1.082       .  S
C1515      C1524   1.369       .  A
C1515      C1516   1.389       .  A
C1516      C1517   1.382       .  A
C1516      S1522   1.684       .  A
C1517      C1518   1.386       .  A
C1517      H1526   1.084       .  S
C1518      C1521   1.345       .  A
S1519      C1520   1.724       .  A
C1520      C1521   1.377       .  A
C1521      H1527   1.084       .  S
S1522      C1523   1.711       .  A
C1523      C1524   1.386       .  A
C1524      H1528   1.083       .  S
C1529      C1534   1.386       .  A
C1529      C1530   1.403       .  A
C1529      S1535   1.712       .  A
C1530      C1531   1.405       .  A
C1530      H1541   1.082       .  S
C1531      C1540   1.370       .  A
C1531      C1532   1.388       .  A
C1532      C1533   1.387       .  A
C1532      S1538   1.688       .  A
C1533      C1534   1.390       .  A
C1533      H1542   1.083       .  S
C1534      C1537   1.352       .  A
S1535      C1536   1.723       .  A
C1536      C1537   1.378       .  A
C1537      H1543   1.084       .  S
S1538      C1539   1.712       .  A
C1539      C1540   1.385       .  A
C1540      H1544   1.083       .  S
C1545      C1550   1.390       .  A
C1545      C1546   1.392       .  A
C1545      S1551   1.701       .  A
C1546      C1547   1.395       .  A
C1546      H1557   1.083       .  S
C1547      C1556   1.354       .  A
C1547      C1548   1.390       .  A
C1548      C1549   1.393       .  A
C1548      S1554   1.704       .  A
C1549      C1550   1.397       .  A
C1549      H1558   1.083       .  S
C1550      C1553   1.356       .  A
S1551      C1552   1.711       .  A
C1552      C1553   1.377       .  A
C1553      H1559   1.084       .  S
S1554      C1555   1.713       .  A
C1555      C1556   1.375       .  A
C1556      H1560   1.084       .  S
C1561      C1566   1.386       .  A
C1561      C1562   1.405       .  A
C1561      S1567   1.713       .  A
C1562      C1563   1.406       .  A
C1562      H1573   1.083       .  S
C1563      C1572   1.373       .  A
C1563      C1564   1.386       .  A
C1564      C1565   1.407       .  A
C1564      S1570   1.717       .  A
C1565      C1566   1.408       .  A
C1565      H1574   1.083       .  S
C1566      C1569   1.377       .  A
S1567      C1568   1.725       .  A
C1568      C1569   1.392       .  A
C1569      H1575   1.083       .  S
S1570      C1571   1.726       .  A
C1571      C1572   1.389       .  A
C1572      H1576   1.083       .  S
C1577      C1582   1.387       .  A
C1577      C1578   1.404       .  A
C1577      S1583   1.715       .  A
C1578      C1579   1.406       .  A
C1578      H1589   1.083       .  S
C1579      C1588   1.372       .  A
C1579      C1580   1.386       .  A
C1580      C1581   1.403       .  A
C1580      S1586   1.713       .  A
C1581      C1582   1.405       .  A
C1581      H1590   1.083       .  S
C1582      C1585   1.370       .  A
S1583      C1584   1.722       .  A
C1584      C1585   1.386       .  A
C1585      H1591   1.083       .  S
S1586      C1587   1.723       .  A
C1587      C1588   1.390       .  A
C1588      H1592   1.083       .  S
C1593      C1598   1.386       .  A
C1593      C1594   1.405       .  A
C1593      S1599   1.713       .  A
C1594      C1595   1.406       .  A
C1594      H1605   1.083       .  S
C1595      C1604   1.375       .  A
C1595      C1596   1.386       .  A
C1596      C1597   1.408       .  A
C1596      S1602   1.716       .  A
C1597      C1598   1.409       .  A
C1597      H1606   1.083       .  S
C1598      C1601   1.378       .  A
S1599      C1600   1.725       .  A
C1600      C1601   1.393       .  A
C1601      H1607   1.083       .  S
S1602      C1603   1.727       .  A
C1603      C1604   1.389       .  A
C1604      H1608   1.083       .  S
C1609      C1614   1.385       .  A
C1609      C1610   1.410       .  A
C1609      S1615   1.719       .  A
C1610      C1611   1.411       .  A
C1610      H1621   1.083       .  S
C1611      C1620   1.380       .  A
C1611      C1612   1.386       .  A
C1612      C1613   1.407       .  A
C1612      S1618   1.715       .  A
C1613      C1614   1.408       .  A
C1613      H1622   1.083       .  S
C1614      C1617   1.377       .  A
S1615      C1616   1.728       .  A
C1616      C1617   1.391       .  A
C1617      H1623   1.083       .  S
S1618      C1619   1.726       .  A
C1619      C1620   1.395       .  A
C1620      H1624   1.083       .  S
C1625      C1630   1.386       .  A
C1625      C1626   1.412       .  A
C1625      S1631   1.715       .  A
C1626      C1627   1.411       .  A
C1626      H1637   1.083       .  S
C1627      C1636   1.388       .  A
C1627      C1628   1.385       .  A
C1628      C1629   1.415       .  A
C1628      S1634   1.719       .  A
C1629      C1630   1.413       .  A
C1629      H1638   1.082       .  S
C1630      C1633   1.390       .  A
S1631      C1632   1.728       .  A
C1632      C1633   1.396       .  A
C1633      H1639   1.082       .  S
S1634      C1635   1.732       .  A
C1635      C1636   1.396       .  A
C1636      H1640   1.083       .  S
C1641      C1646   1.387       .  A
C1641      C1642   1.405       .  A
C1641      S1647   1.706       .  A
C1642      C1643   1.404       .  A
C1642      H1653   1.083       .  S
C1643      C1652   1.377       .  A
C1643      C1644   1.387       .  A
C1644      C1645   1.405       .  A
C1644      S1650   1.707       .  A
C1645      C1646   1.404       .  A
C1645      H1654   1.083       .  S
C1646      C1649   1.378       .  A
S1647      C1648   1.723       .  A
C1648      C1649   1.386       .  A
C1649      H1655   1.082       .  S
S1650      C1651   1.726       .  A
C1651      C1652   1.388       .  A
C1652      H1656   1.083       .  S
C1657      C1662   1.387       .  A
C1657      C1658   1.401       .  A
C1657      S1663   1.713       .  A
C1658      C1659   1.404       .  A
C1658      H1669   1.083       .  S
C1659      C1668   1.365       .  A
C1659      C1660   1.389       .  A
C1660      C1661   1.388       .  A
C1660      S1666   1.693       .  A
C1661      C1662   1.391       .  A
C1661      H1670   1.084       .  S
C1662      C1665   1.350       .  A
S1663      C1664   1.719       .  A
C1664      C1665   1.378       .  A
C1665      H1671   1.084       .  S
S1666      C1667   1.710       .  A
C1667      C1668   1.383       .  A
C1668      H1672   1.083       .  S
C1673      C1678   1.386       .  A
C1673      C1674   1.404       .  A
C1673      S1679   1.716       .  A
C1674      C1675   1.407       .  A
C1674      H1685   1.082       .  S
C1675      C1684   1.371       .  A
C1675      C1676   1.389       .  A
C1676      C1677   1.387       .  A
C1676      S1682   1.690       .  A
C1677      C1678   1.390       .  A
C1677      H1686   1.083       .  S
C1678      C1681   1.350       .  A
S1679      C1680   1.724       .  A
C1680      C1681   1.380       .  A
C1681      H1687   1.084       .  S
S1682      C1683   1.714       .  A
C1683      C1684   1.386       .  A
C1684      H1688   1.083       .  S
C1689      C1694   1.388       .  A
C1689      C1690   1.385       .  A
C1689      S1695   1.689       .  A
C1690      C1691   1.388       .  A
C1690      H1701   1.084       .  S
C1691      C1700   1.349       .  A
C1691      C1692   1.386       .  A
C1692      C1693   1.406       .  A
C1692      S1698   1.718       .  A
C1693      C1694   1.409       .  A
C1693      H1702   1.083       .  S
C1694      C1697   1.371       .  A
S1695      C1696   1.712       .  A
C1696      C1697   1.387       .  A
C1697      H1703   1.083       .  S
S1698      C1699   1.725       .  A
C1699      C1700   1.378       .  A
C1700      H1704   1.084       .  S
C1705      C1710   1.386       .  A
C1705      C1706   1.407       .  A
C1705      S1711   1.716       .  A
C1706      C1707   1.408       .  A
C1706      H1717   1.083       .  S
C1707      C1716   1.377       .  A
C1707      C1708   1.386       .  A
C1708      C1709   1.403   1_554  A
C1708      S1714   1.710   1_554  A
C1709      C1710   1.403   1_556  A
C1709      H1718   1.083       .  S
C1710      C1713   1.371       .  A
S1711      C1712   1.725       .  A
C1712      C1713   1.386       .  A
C1713      H1719   1.083   1_554  S
S1714      C1715   1.724   1_556  A
C1715      C1716   1.392       .  A
C1716      H1720   1.083       .  S
C1721      C1726   1.386       .  A
C1721      C1722   1.404       .  A
C1721      S1727   1.715       .  A
C1722      C1723   1.407       .  A
C1722      H1733   1.083       .  S
C1723      C1732   1.372       .  A
C1723      C1724   1.386       .  A
C1724      C1725   1.406       .  A
C1724      S1730   1.717   1_556  A
C1725      C1726   1.407       .  A
C1725      H1734   1.083   1_556  S
C1726      C1729   1.373       .  A
S1727      C1728   1.723       .  A
C1728      C1729   1.388       .  A
C1729      H1735   1.083   1_556  S
S1730      C1731   1.725   1_554  A
C1731      C1732   1.391       .  A
C1732      H1736   1.083       .  S
C1737      C1742   1.387       .  A
C1737      C1738   1.407       .  A
C1737      S1743   1.706       .  A
C1738      C1739   1.405       .  A
C1738      H1749   1.083       .  S
C1739      C1748   1.381       .  A
C1739      C1740   1.387       .  A
C1740      C1741   1.406       .  A
C1740      S1746   1.705       .  A
C1741      C1742   1.404       .  A
C1741      H1750   1.083       .  S
C1742      C1745   1.379       .  A
S1743      C1744   1.724       .  A
C1744      C1745   1.387       .  A
C1745      H1751   1.083       .  S
S1746      C1747   1.728       .  A
C1747      C1748   1.390       .  A
C1748      H1752   1.083       .  S
C1753      C1758   1.386       .  A
C1753      C1754   1.406       .  A
C1753      S1759   1.714       .  A
C1754      C1755   1.407       .  A
C1754      H1765   1.083       .  S
C1755      C1764   1.376       .  A
C1755      C1756   1.386       .  A
C1756      C1757   1.407       .  A
C1756      S1762   1.716       .  A
C1757      C1758   1.408       .  A
C1757      H1766   1.083       .  S
C1758      C1761   1.378       .  A
S1759      C1760   1.727       .  A
C1760      C1761   1.392       .  A
C1761      H1767   1.083       .  S
S1762      C1763   1.725       .  A
C1763      C1764   1.389       .  A
C1764      H1768   1.083       .  S
C1769      C1774   1.386       .  A
C1769      C1770   1.407       .  A
C1769      S1775   1.717       .  A
C1770      C1771   1.408       .  A
C1770      H1781   1.083       .  S
C1771      C1780   1.376       .  A
C1771      C1772   1.386       .  A
C1772      C1773   1.406       .  A
C1772      S1778   1.716       .  A
C1773      C1774   1.407       .  A
C1773      H1782   1.083       .  S
C1774      C1777   1.375       .  A
S1775      C1776   1.724       .  A
C1776      C1777   1.389       .  A
C1777      H1783   1.083       .  S
S1778      C1779   1.726       .  A
C1779      C1780   1.393       .  A
C1780      H1784   1.083       .  S
C1785      C1790   1.386       .  A
C1785      C1786   1.404       .  A
C1785      S1791   1.716       .  A
C1786      C1787   1.406       .  A
C1786      H1797   1.083       .  S
C1787      C1796   1.372       .  A
C1787      C1788   1.386       .  A
C1788      C1789   1.406       .  A
C1788      S1794   1.718       .  A
C1789      C1790   1.408       .  A
C1789      H1798   1.083       .  S
C1790      C1793   1.375       .  A
S1791      C1792   1.724       .  A
C1792      C1793   1.393       .  A
C1793      H1799   1.083       .  S
S1794      C1795   1.723       .  A
C1795      C1796   1.387       .  A
C1796      H1800   1.083       .  S
C1801      C1806   1.387       .  A
C1801      C1802   1.403       .  A
C1801      S1807   1.715       .  A
C1802      C1803   1.406       .  A
C1802      H1813   1.083       .  S
C1803      C1812   1.372       .  A
C1803      C1804   1.386       .  A
C1804      C1805   1.406       .  A
C1804      S1810   1.717       .  A
C1805      C1806   1.408       .  A
C1805      H1814   1.083       .  S
C1806      C1809   1.374       .  A
S1807      C1808   1.721       .  A
C1808      C1809   1.389       .  A
C1809      H1815   1.083       .  S
S1810      C1811   1.726       .  A
C1811      C1812   1.390       .  A
C1812      H1816   1.083       .  S
C1817      C1822   1.387       .  A
C1817      C1818   1.404       .  A
C1817      S1823   1.705       .  A
C1818      C1819   1.403       .  A
C1818      H1829   1.083       .  S
C1819      C1828   1.376       .  A
C1819      C1820   1.387       .  A
C1820      C1821   1.409       .  A
C1820      S1826   1.712       .  A
C1821      C1822   1.408       .  A
C1821      H1830   1.083       .  S
C1822      C1825   1.381       .  A
S1823      C1824   1.723       .  A
C1824      C1825   1.390       .  A
C1825      H1831   1.083       .  S
S1826      C1827   1.727       .  A
C1827      C1828   1.387       .  A
C1828      H1832   1.083       .  S
C1833      C1838   1.389       .  A
C1833      C1834   1.388       .  A
C1833      S1839   1.694       .  A
C1834      C1835   1.392       .  A
C1834      H1845   1.083       .  S
C1835      C1844   1.352       .  A
C1835      C1836   1.387       .  A
C1836      C1837   1.401       .  A
C1836      S1842   1.713       .  A
C1837      C1838   1.404       .  A
C1837      H1846   1.083       .  S
C1838      C1841   1.365       .  A
S1839      C1840   1.711       .  A
C1840      C1841   1.383       .  A
C1841      H1847   1.083       .  S
S1842      C1843   1.721       .  A
C1843      C1844   1.379       .  A
C1844      H1848   1.084       .  S
C1849      C1854   1.388       .  A
C1849      C1850   1.387       .  A
C1849      S1855   1.688       .  A
C1850      C1851   1.390       .  A
C1850      H1861   1.083       .  S
C1851      C1860   1.352       .  A
C1851      C1852   1.387       .  A
C1852      C1853   1.403       .  A
C1852      S1858   1.713       .  A
C1853      C1854   1.405       .  A
C1853      H1862   1.082       .  S
C1854      C1857   1.369       .  A
S1855      C1856   1.711       .  A
C1856      C1857   1.384       .  A
C1857      H1863   1.083       .  S
S1858      C1859   1.722       .  A
C1859      C1860   1.378       .  A
C1860      H1864   1.084       .  S
C1865      C1870   1.388       .  A
C1865      C1866   1.393       .  A
C1865      S1871   1.699       .  A
C1866      C1867   1.396       .  A
C1866      H1877   1.083       .  S
C1867      C1876   1.359       .  A
C1867      C1868   1.388       .  A
C1868      C1869   1.401       .  A
C1868      S1874   1.711       .  A
C1869      C1870   1.404       .  A
C1869      H1878   1.083       .  S
C1870      C1873   1.367       .  A
S1871      C1872   1.713       .  A
C1872      C1873   1.383       .  A
C1873      H1879   1.083   1_455  S
S1874      C1875   1.720       .  A
C1875      C1876   1.379       .  A
C1876      H1880   1.084       .  S
C1881      C1886   1.386       .  A
C1881      C1882   1.409       .  A
C1881      S1887   1.719       .  A
C1882      C1883   1.410       .  A
C1882      H1893   1.083       .  S
C1883      C1892   1.380       .  A
C1883      C1884   1.386       .  A
C1884      C1885   1.405   1_655  A
C1884      S1890   1.712   1_655  A
C1885      C1886   1.406   1_455  A
C1885      H1894   1.083       .  S
C1886      C1889   1.375       .  A
S1887      C1888   1.726       .  A
C1888      C1889   1.388       .  A
C1889      H1895   1.083   1_655  S
S1890      C1891   1.725   1_455  A
C1891      C1892   1.393       .  A
C1892      H1896   1.083       .  S
C1897      C1902   1.387       .  A
C1897      C1898   1.404       .  A
C1897      S1903   1.707       .  A
C1898      C1899   1.403       .  A
C1898      H1909   1.083       .  S
C1899      C1908   1.378       .  A
C1899      C1900   1.385       .  A
C1900      C1901   1.415       .  A
C1900      S1906   1.720       .  A
C1901      C1902   1.414       .  A
C1901      H1910   1.083       .  S
C1902      C1905   1.388       .  A
S1903      C1904   1.721       .  A
C1904      C1905   1.395       .  A
C1905      H1911   1.082       .  S
S1906      C1907   1.732       .  A
C1907      C1908   1.389       .  A
C1908      H1912   1.083       .  S
C1913      C1918   1.387       .  A
C1913      C1914   1.403       .  A
C1913      S1919   1.715       .  A
C1914      C1915   1.406       .  A
C1914      H1925   1.083       .  S
C1915      C1924   1.371       .  A
C1915      C1916   1.386       .  A
C1916      C1917   1.404       .  A
C1916      S1922   1.716       .  A
C1917      C1918   1.406       .  A
C1917      H1926   1.083       .  S
C1918      C1921   1.371       .  A
S1919      C1920   1.722       .  A
C1920      C1921   1.386       .  A
C1921      H1927   1.083       .  S
S1922      C1923   1.724       .  A
C1923      C1924   1.391       .  A
C1924      H1928   1.083       .  S
C1929      C1934   1.389       .  A
C1929      C1930   1.398       .  A
C1929      S1935   1.709       .  A
C1930      C1931   1.401       .  A
C1930      H1941   1.083       .  S
C1931      C1940   1.362       .  A
C1931      C1932   1.389       .  A
C1932      C1933   1.392       .  A
C1932      S1938   1.700       .  A
C1933      C1934   1.395       .  A
C1933      H1942   1.083       .  S
C1934      C1937   1.357       .  A
S1935      C1936   1.717       .  A
C1936      C1937   1.377       .  A
C1937      H1943   1.084       .  S
S1938      C1939   1.711       .  A
C1939      C1940   1.380       .  A
C1940      H1944   1.083       .  S
C1945      C1950   1.388       .  A
C1945      C1946   1.388       .  A
C1945      S1951   1.692       .  A
C1946      C1947   1.391       .  A
C1946      H1957   1.083       .  S
C1947      C1956   1.352       .  A
C1947      C1948   1.386       .  A
C1948      C1949   1.404       .  A
C1948      S1954   1.715       .  A
C1949      C1950   1.407       .  A
C1949      H1958   1.082       .  S
C1950      C1953   1.369       .  A
S1951      C1952   1.711       .  A
C1952      C1953   1.385       .  A
C1953      H1959   1.083       .  S
S1954      C1955   1.724       .  A
C1955      C1956   1.379       .  A
C1956      H1960   1.084       .  S
C1961      C1966   1.387       .  A
C1961      C1962   1.403       .  A
C1961      S1967   1.712       .  A
C1962      C1963   1.405       .  A
C1962      H1973   1.083       .  S
C1963      C1972   1.369       .  A
C1963      C1964   1.387       .  A
C1964      C1965   1.400       .  A
C1964      S1970   1.710       .  A
C1965      C1966   1.402       .  A
C1965      H1974   1.083       .  S
C1966      C1969   1.368       .  A
S1967      C1968   1.724       .  A
C1968      C1969   1.387       .  A
C1969      H1975   1.083       .  S
S1970      C1971   1.719       .  A
C1971      C1972   1.386       .  A
C1972      H1976   1.083       .  S
C1977      C1982   1.386       .  A
C1977      C1978   1.408       .  A
C1977      S1983   1.709       .  A
C1978      C1979   1.406       .  A
C1978      H1989   1.083       .  S
C1979      C1988   1.382       .  A
C1979      C1980   1.387       .  A
C1980      C1981   1.409       .  A
C1980      S1986   1.710       .  A
C1981      C1982   1.407       .  A
C1981      H1990   1.083       .  S
C1982      C1985   1.383       .  A
S1983      C1984   1.728       .  A
C1984      C1985   1.392       .  A
C1985      H1991   1.083       .  S
S1986      C1987   1.726       .  A
C1987      C1988   1.389       .  A
C1988      H1992   1.083       .  S
C1993      C1998   1.386       .  A
C1993      C1994   1.405       .  A
C1993      S1999   1.715       .  A
C1994      C1995   1.406       .  A
C1994      H2005   1.083       .  S
C1995      C2004   1.374       .  A
C1995      C1996   1.386       .  A
C1996      C1997   1.408       .  A
C1996      S2002   1.718       .  A
C1997      C1998   1.409       .  A
C1997      H2006   1.083       .  S
C1998      C2001   1.378       .  A
S1999      C2000   1.725       .  A
C2000      C2001   1.393       .  A
C2001      H2007   1.083       .  S
S2002      C2003   1.727       .  A
C2003      C2004   1.389       .  A
C2004      H2008   1.083       .  S
C2009      C2014   1.386       .  A
C2009      C2010   1.408       .  A
C2009      S2015   1.718       .  A
C2010      C2011   1.409       .  A
C2010      H2021   1.083       .  S
C2011      C2020   1.380       .  A
C2011      C2012   1.386       .  A
C2012      C2013   1.407       .  A
C2012      S2018   1.715       .  A
C2013      C2014   1.407       .  A
C2013      H2022   1.083       .  S
C2014      C2017   1.377       .  A
S2015      C2016   1.726       .  A
C2016      C2017   1.390       .  A
C2017      H2023   1.083       .  S
S2018      C2019   1.726       .  A
C2019      C2020   1.393       .  A
C2020      H2024   1.083       .  S
C2025      C2030   1.387       .  A
C2025      C2026   1.405       .  A
C2025      S2031   1.717       .  A
C2026      C2027   1.407       .  A
C2026      H2037   1.083       .  S
C2027      C2036   1.374       .  A
C2027      C2028   1.386       .  A
C2028      C2029   1.404       .  A
C2028      S2034   1.715       .  A
C2029      C2030   1.406       .  A
C2029      H2038   1.083       .  S
C2030      C2033   1.372       .  A
S2031      C2032   1.723       .  A
C2032      C2033   1.387       .  A
C2033      H2039   1.083       .  S
S2034      C2035   1.724       .  A
C2035      C2036   1.391       .  A
C2036      H2040   1.083       .  S
C2041      C2046   1.387       .  A
C2041      C2042   1.407       .  A
C2041      S2047   1.710       .  A
C2042      C2043   1.407       .  A
C2042      H2053   1.083       .  S
C2043      C2052   1.381       .  A
C2043      C2044   1.386       .  A
C2044      C2045   1.408       .  A
C2044      S2050   1.712       .  A
C2045      C2046   1.407       .  A
C2045      H2054   1.083       .  S
C2046      C2049   1.382       .  A
S2047      C2048   1.725       .  A
C2048      C2049   1.389       .  A
C2049      H2055   1.083       .  S
S2050      C2051   1.727       .  A
C2051      C2052   1.391       .  A
C2052      H2056   1.083       .  S
C2057      C2062   1.386       .  A
C2057      C2058   1.406       .  A
C2057      S2063   1.717       .  A
C2058      C2059   1.408       .  A
C2058      H2069   1.083       .  S
C2059      C2068   1.375       .  A
C2059      C2060   1.386       .  A
C2060      C2061   1.403       .  A
C2060      S2066   1.713       .  A
C2061      C2062   1.405       .  A
C2061      H2070   1.083       .  S
C2062      C2065   1.371       .  A
S2063      C2064   1.725       .  A
C2064      C2065   1.386       .  A
C2065      H2071   1.083       .  S
S2066      C2067   1.724       .  A
C2067      C2068   1.392       .  A
C2068      H2072   1.083       .  S
C2073      C2078   1.387       .  A
C2073      C2074   1.406       .  A
C2073      S2079   1.708       .  A
C2074      C2075   1.405       .  A
C2074      H2085   1.083       .  S
C2075      C2084   1.380       .  A
C2075      C2076   1.386       .  A
C2076      C2077   1.410       .  A
C2076      S2082   1.712       .  A
C2077      C2078   1.409       .  A
C2077      H2086   1.083       .  S
C2078      C2081   1.383       .  A
S2079      C2080   1.722       .  A
C2080      C2081   1.391       .  A
C2081      H2087   1.083       .  S
S2082      C2083   1.730       .  A
C2083      C2084   1.389       .  A
C2084      H2088   1.083       .  S
C2089      C2094   1.386       .  A
C2089      C2090   1.403       .  A
C2089      S2095   1.716       .  A
C2090      C2091   1.406       .  A
C2090      H2101   1.083       .  S
C2091      C2100   1.368       .  A
C2091      C2092   1.388       .  A
C2092      C2093   1.389       .  A
C2092      S2098   1.694       .  A
C2093      C2094   1.392       .  A
C2093      H2102   1.083       .  S
C2094      C2097   1.351       .  A
S2095      C2096   1.722       .  A
C2096      C2097   1.382       .  A
C2097      H2103   1.084       .  S
S2098      C2099   1.714       .  A
C2099      C2100   1.384       .  A
C2100      H2104   1.083       .  S
C2105      C2110   1.387       .  A
C2105      C2106   1.405       .  A
C2105      S2111   1.715       .  A
C2106      C2107   1.407       .  A
C2106      H2117   1.082       .  S
C2107      C2116   1.371       .  A
C2107      C2108   1.388       .  A
C2108      C2109   1.387       .  A
C2108      S2114   1.688       .  A
C2109      C2110   1.389       .  A
C2109      H2118   1.083       .  S
C2110      C2113   1.351       .  A
S2111      C2112   1.723       .  A
C2112      C2113   1.378       .  A
C2113      H2119   1.084       .  S
S2114      C2115   1.708       .  A
C2115      C2116   1.386       .  A
C2116      H2120   1.083       .  S
C2121      C2126   1.388       .  A
C2121      C2122   1.395       .  A
C2121      S2127   1.704       .  A
C2122      C2123   1.397       .  A
C2122      H2133   1.083       .  S
C2123      C2132   1.361       .  A
C2123      C2124   1.388       .  A
C2124      C2125   1.401       .  A
C2124      S2130   1.712       .  A
C2125      C2126   1.404       .  A
C2125      H2134   1.083       .  S
C2126      C2129   1.367       .  A
S2127      C2128   1.714       .  A
C2128      C2129   1.384       .  A
C2129      H2135   1.083       .  S
S2130      C2131   1.719       .  A
C2131      C2132   1.380       .  A
C2132      H2136   1.084       .  S
C2137      C2142   1.387       .  A
C2137      C2138   1.406       .  A
C2137      S2143   1.707       .  A
C2138      C2139   1.404       .  A
C2138      H2149   1.083       .  S
C2139      C2148   1.378       .  A
C2139      C2140   1.388       .  A
C2140      C2141   1.403       .  A
C2140      S2146   1.704       .  A
C2141      C2142   1.402       .  A
C2141      H2150   1.083       .  S
C2142      C2145   1.376       .  A
S2143      C2144   1.727       .  A
C2144      C2145   1.388       .  A
C2145      H2151   1.083       .  S
S2146      C2147   1.722       .  A
C2147      C2148   1.386       .  A
C2148      H2152   1.083       .  S
C2153      C2158   1.386       .  A
C2153      C2154   1.410       .  A
C2153      S2159   1.714       .  A
C2154      C2155   1.409       .  A
C2154      H2165   1.083       .  S
C2155      C2164   1.382       .  A
C2155      C2156   1.387       .  A
C2156      C2157   1.403       .  A
C2156      S2162   1.706       .  A
C2157      C2158   1.403       .  A
C2157      H2166   1.083       .  S
C2158      C2161   1.376       .  A
S2159      C2160   1.729       .  A
C2160      C2161   1.389       .  A
C2161      H2167   1.083       .  S
S2162      C2163   1.722       .  A
C2163      C2164   1.390       .  A
C2164      H2168   1.083       .  S
C2169      C2174   1.386       .  A
C2169      C2170   1.410       .  A
C2169      S2175   1.710       .  A
C2170      C2171   1.408       .  A
C2170      H2181   1.083       .  S
C2171      C2180   1.384       .  A
C2171      C2172   1.387       .  A
C2172      C2173   1.408       .  A
C2172      S2178   1.709       .  A
C2173      C2174   1.407       .  A
C2173      H2182   1.083       .  S
C2174      C2177   1.384       .  A
S2175      C2176   1.730       .  A
C2176      C2177   1.392       .  A
C2177      H2183   1.083       .  S
S2178      C2179   1.724       .  A
C2179      C2180   1.391       .  A
C2180      H2184   1.082       .  S
C2185      C2190   1.387       .  A
C2185      C2186   1.410       .  A
C2185      S2191   1.710       .  A
C2186      C2187   1.408       .  A
C2186      H2197   1.083       .  S
C2187      C2196   1.386       .  A
C2187      C2188   1.386       .  A
C2188      C2189   1.410       .  A
C2188      S2194   1.709       .  A
C2189      C2190   1.407       .  A
C2189      H2198   1.083       .  S
C2190      C2193   1.385       .  A
S2191      C2192   1.727       .  A
C2192      C2193   1.391       .  A
C2193      H2199   1.082       .  S
S2194      C2195   1.730       .  A
C2195      C2196   1.393       .  A
C2196      H2200   1.083       .  S
C2201      C2206   1.387       .  A
C2201      C2202   1.406       .  A
C2201      S2207   1.709       .  A
C2202      C2203   1.405       .  A
C2202      H2213   1.083       .  S
C2203      C2212   1.378       .  A
C2203      C2204   1.386       .  A
C2204      C2205   1.409       .  A
C2204      S2210   1.713       .  A
C2205      C2206   1.408       .  A
C2205      H2214   1.083       .  S
C2206      C2209   1.382       .  A
S2207      C2208   1.724       .  A
C2208      C2209   1.389       .  A
C2209      H2215   1.083       .  S
S2210      C2211   1.728       .  A
C2211      C2212   1.391       .  A
C2212      H2216   1.083       .  S
C2217      C2222   1.386       .  A
C2217      C2218   1.409       .  A
C2217      S2223   1.710       .  A
C2218      C2219   1.407       .  A
C2218      H2229   1.083       .  S
C2219      C2228   1.386       .  A
C2219      C2220   1.386       .  A
C2220      C2221   1.412       .  A
C2220      S2226   1.712       .  A
C2221      C2222   1.409       .  A
C2221      H2230   1.083       .  S
C2222      C2225   1.387       .  A
S2223      C2224   1.726       .  A
C2224      C2225   1.393       .  A
C2225      H2231   1.082       .  S
S2226      C2227   1.731       .  A
C2227      C2228   1.392       .  A
C2228      H2232   1.083       .  S
C2233      C2238   1.388       .  A
C2233      C2234   1.392       .  A
C2233      S2239   1.696       .  A
C2234      C2235   1.395       .  A
C2234      H2245   1.083       .  S
C2235      C2244   1.356       .  A
C2235      C2236   1.387       .  A
C2236      C2237   1.401       .  A
C2236      S2242   1.713       .  A
C2237      C2238   1.404       .  A
C2237      H2246   1.083       .  S
C2238      C2241   1.367       .  A
S2239      C2240   1.714       .  A
C2240      C2241   1.383       .  A
C2241      H2247   1.083       .  S
S2242      C2243   1.720       .  A
C2243      C2244   1.382       .  A
C2244      H2248   1.084       .  S
C2249      C2254   1.388       .  A
C2249      C2250   1.389       .  A
C2249      S2255   1.692       .  A
C2250      C2251   1.391       .  A
C2250      H2261   1.083       .  S
C2251      C2260   1.354       .  A
C2251      C2252   1.386       .  A
C2252      C2253   1.406       .  A
C2252      S2258   1.717       .  A
C2253      C2254   1.408       .  A
C2253      H2262   1.082       .  S
C2254      C2257   1.373       .  A
S2255      C2256   1.713       .  A
C2256      C2257   1.387       .  A
C2257      H2263   1.083       .  S
S2258      C2259   1.725       .  A
C2259      C2260   1.381       .  A
C2260      H2264   1.084       .  S
C2265      C2270   1.388       .  A
C2265      C2266   1.387       .  A
C2265      S2271   1.691       .  A
C2266      C2267   1.390       .  A
C2266      H2277   1.083       .  S
C2267      C2276   1.351       .  A
C2267      C2268   1.385       .  A
C2268      C2269   1.404       .  A
C2268      S2274   1.715       .  A
C2269      C2270   1.407       .  A
C2269      H2278   1.082       .  S
C2270      C2273   1.369       .  A
S2271      C2272   1.714       .  A
C2272      C2273   1.386       .  A
C2273      H2279   1.083       .  S
S2274      C2275   1.725       .  A
C2275      C2276   1.380       .  A
C2276      H2280   1.084       .  S
C2281      C2286   1.386       .  A
C2281      C2282   1.406       .  A
C2281      S2287   1.716       .  A
C2282      C2283   1.407       .  A
C2282      H2293   1.083       .  S
C2283      C2292   1.376       .  A
C2283      C2284   1.386       .  A
C2284      C2285   1.406       .  A
C2284      S2290   1.715       .  A
C2285      C2286   1.408       .  A
C2285      H2294   1.083       .  S
C2286      C2289   1.376       .  A
S2287      C2288   1.725       .  A
C2288      C2289   1.393       .  A
C2289      H2295   1.083       .  S
S2290      C2291   1.727       .  A
C2291      C2292   1.389       .  A
C2292      H2296   1.083       .  S
C2297      C2302   1.386       .  A
C2297      C2298   1.404       .  A
C2297      S2303   1.712       .  A
C2298      C2299   1.405       .  A
C2298      H2309   1.083       .  S
C2299      C2308   1.372       .  A
C2299      C2300   1.386       .  A
C2300      C2301   1.406       .  A
C2300      S2306   1.716       .  A
C2301      C2302   1.408       .  A
C2301      H2310   1.083       .  S
C2302      C2305   1.376       .  A
S2303      C2304   1.724       .  A
C2304      C2305   1.392       .  A
C2305      H2311   1.083       .  S
S2306      C2307   1.724       .  A
C2307      C2308   1.386       .  A
C2308      H2312   1.083       .  S
C2313      C2318   1.385       .  A
C2313      C2314   1.407       .  A
C2313      S2319   1.720       .  A
C2314      C2315   1.409       .  A
C2314      H2325   1.083       .  S
C2315      C2324   1.374       .  A
C2315      C2316   1.386       .  A
C2316      C2317   1.403       .  A
C2316      S2322   1.715       .  A
C2317      C2318   1.406       .  A
C2317      H2326   1.083       .  S
C2318      C2321   1.371       .  A
S2319      C2320   1.726       .  A
C2320      C2321   1.391       .  A
C2321      H2327   1.083       .  S
S2322      C2323   1.724       .  A
C2323      C2324   1.390       .  A
C2324      H2328   1.083       .  S
C2329      C2334   1.386       .  A
C2329      C2330   1.406       .  A
C2329      S2335   1.715       .  A
C2330      C2331   1.407       .  A
C2330      H2341   1.083       .  S
C2331      C2340   1.375       .  A
C2331      C2332   1.386       .  A
C2332      C2333   1.404       .  A
C2332      S2338   1.712       .  A
C2333      C2334   1.405       .  A
C2333      H2342   1.083       .  S
C2334      C2337   1.373       .  A
S2335      C2336   1.724       .  A
C2336      C2337   1.388       .  A
C2337      H2343   1.083       .  S
S2338      C2339   1.724       .  A
C2339      C2340   1.391       .  A
C2340      H2344   1.083       .  S
C2345      C2350   1.387       .  A
C2345      C2346   1.406       .  A
C2345      S2351   1.707       .  A
C2346      C2347   1.405       .  A
C2346      H2357   1.083       .  S
C2347      C2356   1.380       .  A
C2347      C2348   1.386       .  A
C2348      C2349   1.410       .  A
C2348      S2354   1.712       .  A
C2349      C2350   1.408       .  A
C2349      H2358   1.083       .  S
C2350      C2353   1.384       .  A
S2351      C2352   1.723       .  A
C2352      C2353   1.391       .  A
C2353      H2359   1.083       .  S
S2354      C2355   1.729       .  A
C2355      C2356   1.390       .  A
C2356      H2360   1.083       .  S
C2361      C2366   1.386       .  A
C2361      C2362   1.410       .  A
C2361      S2367   1.719       .  A
C2362      C2363   1.411       .  A
C2362      H2373   1.083       .  S
C2363      C2372   1.380       .  A
C2363      C2364   1.385       .  A
C2364      C2365   1.406       .  A
C2364      S2370   1.716       .  A
C2365      C2366   1.407       .  A
C2365      H2374   1.083       .  S
C2366      C2369   1.376       .  A
S2367      C2368   1.727       .  A
C2368      C2369   1.389       .  A
C2369      H2375   1.083       .  S
S2370      C2371   1.725       .  A
C2371      C2372   1.396       .  A
C2372      H2376   1.083       .  S
C2377      C2382   1.386       .  A
C2377      C2378   1.410       .  A
C2377      S2383   1.712       .  A
C2378      C2379   1.408       .  A
C2378      H2389   1.083       .  S
C2379      C2388   1.383       .  A
C2379      C2380   1.387       .  A
C2380      C2381   1.407       .  A
C2380      S2386   1.709       .  A
C2381      C2382   1.406       .  A
C2381      H2390   1.083       .  S
C2382      C2385   1.382       .  A
S2383      C2384   1.729       .  A
C2384      C2385   1.392       .  A
C2385      H2391   1.083       .  S
S2386      C2387   1.725       .  A
C2387      C2388   1.391       .  A
C2388      H2392   1.082       .  S
C2393      C2398   1.389       .  A
C2393      C2394   1.386       .  A
C2393      S2399   1.694       .  A
C2394      C2395   1.391       .  A
C2394      H2405   1.083       .  S
C2395      C2404   1.347       .  A
C2395      C2396   1.387       .  A
C2396      C2397   1.401       .  A
C2396      S2402   1.715       .  A
C2397      C2398   1.405       .  A
C2397      H2406   1.082       .  S
C2398      C2401   1.363       .  A
S2399      C2400   1.709       .  A
C2400      C2401   1.383       .  A
C2401      H2407   1.083       .  S
S2402      C2403   1.720       .  A
C2403      C2404   1.379       .  A
C2404      H2408   1.084       .  S
C2409      C2414   1.389       .  A
C2409      C2410   1.388       .  A
C2409      S2415   1.693       .  A
C2410      C2411   1.391       .  A
C2410      H2421   1.083       .  S
C2411      C2420   1.351       .  A
C2411      C2412   1.388       .  A
C2412      C2413   1.398       .  A
C2412      S2418   1.709       .  A
C2413      C2414   1.402       .  A
C2413      H2422   1.083       .  S
C2414      C2417   1.363       .  A
S2415      C2416   1.711       .  A
C2416      C2417   1.381       .  A
C2417      H2423   1.083   1_455  S
S2418      C2419   1.718       .  A
C2419      C2420   1.377       .  A
C2420      H2424   1.084       .  S
C2425      C2430   1.386       .  A
C2425      C2426   1.408       .  A
C2425      S2431   1.711       .  A
C2426      C2427   1.407       .  A
C2426      H2437   1.083       .  S
C2427      C2436   1.381       .  A
C2427      C2428   1.387       .  A
C2428      C2429   1.406       .  A
C2428      S2434   1.709   1_655  A
C2429      C2430   1.405       .  A
C2429      H2438   1.083   1_655  S
C2430      C2433   1.379       .  A
S2431      C2432   1.727       .  A
C2432      C2433   1.390       .  A
C2433      H2439   1.083   1_655  S
S2434      C2435   1.724   1_455  A
C2435      C2436   1.389       .  A
C2436      H2440   1.082       .  S
C2441      C2446   1.386       .  A
C2441      C2442   1.410       .  A
C2441      S2447   1.713       .  A
C2442      C2443   1.408       .  A
C2442      H2453   1.083       .  S
C2443      C2452   1.382       .  A
C2443      C2444   1.387       .  A
C2444      C2445   1.404       .  A
C2444      S2450   1.705       .  A
C2445      C2446   1.403       .  A
C2445      H2454   1.083       .  S
C2446      C2449   1.377       .  A
S2447      C2448   1.729       .  A
C2448      C2449   1.389       .  A
C2449      H2455   1.083       .  S
S2450      C2451   1.722       .  A
C2451      C2452   1.390       .  A
C2452      H2456   1.082       .  S
C2457      C2462   1.386       .  A
C2457      C2458   1.408       .  A
C2457      S2463   1.719       .  A
C2458      C2459   1.409       .  A
C2458      H2469   1.083       .  S
C2459      C2468   1.377       .  A
C2459      C2460   1.386       .  A
C2460      C2461   1.404       .  A
C2460      S2466   1.714       .  A
C2461      C2462   1.405       .  A
C2461      H2470   1.083       .  S
C2462      C2465   1.372       .  A
S2463      C2464   1.724       .  A
C2464      C2465   1.387       .  A
C2465      H2471   1.083       .  S
S2466      C2467   1.724       .  A
C2467      C2468   1.393       .  A
C2468      H2472   1.083       .  S
C2473      C2478   1.387       .  A
C2473      C2474   1.407       .  A
C2473      S2479   1.712       .  A
C2474      C2475   1.407       .  A
C2474      H2485   1.083       .  S
C2475      C2484   1.375       .  A
C2475      C2476   1.388       .  A
C2476      C2477   1.385       .  A
C2476      S2482   1.681       .  A
C2477      C2478   1.386       .  A
C2477      H2486   1.084       .  S
C2478      C2481   1.351       .  A
S2479      C2480   1.724       .  A
C2480      C2481   1.375       .  A
C2481      H2487   1.084       .  S
S2482      C2483   1.717       .  A
C2483      C2484   1.388       .  A
C2484      H2488   1.083       .  S
C2489      C2494   1.388       .  A
C2489      C2490   1.388       .  A
C2489      S2495   1.693       .  A
C2490      C2491   1.391       .  A
C2490      H2501   1.083       .  S
C2491      C2500   1.352       .  A
C2491      C2492   1.387       .  A
C2492      C2493   1.402       .  A
C2492      S2498   1.714       .  A
C2493      C2494   1.405       .  A
C2493      H2502   1.082       .  S
C2494      C2497   1.368       .  A
S2495      C2496   1.711       .  A
C2496      C2497   1.384       .  A
C2497      H2503   1.083   1_556  S
S2498      C2499   1.721       .  A
C2499      C2500   1.378       .  A
C2500      H2504   1.084       .  S
C2505      C2510   1.387       .  A
C2505      C2506   1.401       .  A
C2505      S2511   1.707       .  A
C2506      C2507   1.402       .  A
C2506      H2517   1.083       .  S
C2507      C2516   1.367       .  A
C2507      C2508   1.389       .  A
C2508      C2509   1.386       .  A
C2508      S2514   1.686       .  A
C2509      C2510   1.388       .  A
C2509      H2518   1.083       .  S
C2510      C2513   1.350       .  A
S2511      C2512   1.721       .  A
C2512      C2513   1.377       .  A
C2513      H2519   1.084       .  S
S2514      C2515   1.715       .  A
C2515      C2516   1.383       .  A
C2516      H2520   1.083       .  S
C2521      C2526   1.389       .  A
C2521      C2522   1.386       .  A
C2521      S2527   1.693       .  A
C2522      C2523   1.390       .  A
C2522      H2533   1.083       .  S
C2523      C2532   1.349       .  A
C2523      C2524   1.387       .  A
C2524      C2525   1.404       .  A
C2524      S2530   1.717       .  A
C2525      C2526   1.407       .  A
C2525      H2534   1.082       .  S
C2526      C2529   1.367       .  A
S2527      C2528   1.708       .  A
C2528      C2529   1.385       .  A
C2529      H2535   1.083   1_565  S
S2530      C2531   1.723       .  A
C2531      C2532   1.377       .  A
C2532      H2536   1.084       .  S
C2537      C2542   1.386       .  A
C2537      C2538   1.404       .  A
C2537      S2543   1.715       .  A
C2538      C2539   1.406       .  A
C2538      H2549   1.083       .  S
C2539      C2548   1.371       .  A
C2539      C2540   1.387       .  A
C2540      C2541   1.402       .  A
C2540      S2546   1.714       .  A
C2541      C2542   1.405       .  A
C2541      H2550   1.083       .  S
C2542      C2545   1.370       .  A
S2543      C2544   1.723       .  A
C2544      C2545   1.390       .  A
C2545      H2551   1.083       .  S
S2546      C2547   1.721       .  A
C2547      C2548   1.387       .  A
C2548      H2552   1.083       .  S
C2553      C2558   1.387       .  A
C2553      C2554   1.406       .  A
C2553      S2559   1.709       .  A
C2554      C2555   1.406       .  A
C2554      H2565   1.083       .  S
C2555      C2564   1.379       .  A
C2555      C2556   1.386       .  A
C2556      C2557   1.409       .  A
C2556      S2562   1.713       .  A
C2557      C2558   1.408       .  A
C2557      H2566   1.083       .  S
C2558      C2561   1.382       .  A
S2559      C2560   1.724       .  A
C2560      C2561   1.390       .  A
C2561      H2567   1.083       .  S
S2562      C2563   1.727       .  A
C2563      C2564   1.390       .  A
C2564      H2568   1.083       .  S
C2569      C2574   1.386       .  A
C2569      C2570   1.407       .  A
C2569      S2575   1.710       .  A
C2570      C2571   1.406       .  A
C2570      H2581   1.083       .  S
C2571      C2580   1.380       .  A
C2571      C2572   1.387       .  A
C2572      C2573   1.405   1_554  A
C2572      S2578   1.707   1_554  A
C2573      C2574   1.405   1_556  A
C2573      H2582   1.083       .  S
C2574      C2577   1.379       .  A
S2575      C2576   1.727       .  A
C2576      C2577   1.389       .  A
C2577      H2583   1.083   1_554  S
S2578      C2579   1.723   1_556  A
C2579      C2580   1.388       .  A
C2580      H2584   1.083       .  S
C2585      C2590   1.389       .  A
C2585      C2586   1.390       .  A
C2585      S2591   1.696       .  A
C2586      C2587   1.393       .  A
C2586      H2597   1.083       .  S
C2587      C2596   1.354       .  A
C2587      C2588   1.388       .  A
C2588      C2589   1.401       .  A
C2588      S2594   1.713       .  A
C2589      C2590   1.404       .  A
C2589      H2598   1.083       .  S
C2590      C2593   1.366       .  A
S2591      C2592   1.711       .  A
C2592      C2593   1.383       .  A
C2593      H2599   1.083       .  S
S2594      C2595   1.719       .  A
C2595      C2596   1.378       .  A
C2596      H2600   1.084       .  S
C2601      C2606   1.386       .  A
C2601      C2602   1.405       .  A
C2601      S2607   1.716       .  A
C2602      C2603   1.408       .  A
C2602      H2613   1.083       .  S
C2603      C2612   1.372       .  A
C2603      C2604   1.388       .  A
C2604      C2605   1.388       .  A
C2604      S2610   1.690       .  A
C2605      C2606   1.390       .  A
C2605      H2614   1.083       .  S
C2606      C2609   1.353       .  A
S2607      C2608   1.725       .  A
C2608      C2609   1.379       .  A
C2609      H2615   1.084       .  S
S2610      C2611   1.713       .  A
C2611      C2612   1.387       .  A
C2612      H2616   1.083       .  S
C2617      C2622   1.387       .  A
C2617      C2618   1.403       .  A
C2617      S2623   1.714       .  A
C2618      C2619   1.406       .  A
C2618      H2629   1.082       .  S
C2619      C2628   1.369       .  A
C2619      C2620   1.388       .  A
C2620      C2621   1.388       .  A
C2620      S2626   1.692       .  A
C2621      C2622   1.391       .  A
C2621      H2630   1.083       .  S
C2622      C2625   1.352       .  A
S2623      C2624   1.722       .  A
C2624      C2625   1.379       .  A
C2625      H2631   1.084       .  S
S2626      C2627   1.712       .  A
C2627      C2628   1.385       .  A
C2628      H2632   1.083       .  S
C2633      C2638   1.386       .  A
C2633      C2634   1.403       .  A
C2633      S2639   1.716       .  A
C2634      C2635   1.406       .  A
C2634      H2645   1.083       .  S
C2635      C2644   1.368       .  A
C2635      C2636   1.388       .  A
C2636      C2637   1.387       .  A
C2636      S2642   1.692       .  A
C2637      C2638   1.390       .  A
C2637      H2646   1.083       .  S
C2638      C2641   1.350       .  A
S2639      C2640   1.722       .  A
C2640      C2641   1.379       .  A
C2641      H2647   1.084       .  S
S2642      C2643   1.710       .  A
C2643      C2644   1.384       .  A
C2644      H2648   1.083       .  S
C2649      C2654   1.386       .  A
C2649      C2650   1.411       .  A
C2649      S2655   1.715       .  A
C2650      C2651   1.409       .  A
C2650      H2661   1.083       .  S
C2651      C2660   1.386       .  A
C2651      C2652   1.386       .  A
C2652      C2653   1.409       .  A
C2652      S2658   1.710       .  A
C2653      C2654   1.408       .  A
C2653      H2662   1.083       .  S
C2654      C2657   1.383       .  A
S2655      C2656   1.728       .  A
C2656      C2657   1.392       .  A
C2657      H2663   1.083       .  S
S2658      C2659   1.729       .  A
C2659      C2660   1.394       .  A
C2660      H2664   1.082       .  S
C2665      C2670   1.386       .  A
C2665      C2666   1.404       .  A
C2665      S2671   1.712       .  A
C2666      C2667   1.405       .  A
C2666      H2677   1.083   1_455  S
C2667      C2676   1.373       .  A
C2667      C2668   1.386       .  A
C2668      C2669   1.408       .  A
C2668      S2674   1.718       .  A
C2669      C2670   1.410       .  A
C2669      H2678   1.083       .  S
C2670      C2673   1.378       .  A
S2671      C2672   1.725       .  A
C2672      C2673   1.393       .  A
C2673      H2679   1.083       .  S
S2674      C2675   1.726       .  A
C2675      C2676   1.388       .  A
C2676      H2680   1.083   1_455  S
C2681      C2686   1.386       .  A
C2681      C2682   1.412       .  A
C2681      S2687   1.715       .  A
C2682      C2683   1.410       .  A
C2682      H2693   1.083       .  S
C2683      C2692   1.385       .  A
C2683      C2684   1.387       .  A
C2684      C2685   1.406       .  A
C2684      S2690   1.708       .  A
C2685      C2686   1.405       .  A
C2685      H2694   1.083       .  S
C2686      C2689   1.381       .  A
S2687      C2688   1.730       .  A
C2688      C2689   1.391       .  A
C2689      H2695   1.083       .  S
S2690      C2691   1.723       .  A
C2691      C2692   1.392       .  A
C2692      H2696   1.082       .  S
C2697      C2702   1.387       .  A
C2697      C2698   1.409       .  A
C2697      S2703   1.712       .  A
C2698      C2699   1.408       .  A
C2698      H2709   1.083       .  S
C2699      C2708   1.383       .  A
C2699      C2700   1.386       .  A
C2700      C2701   1.411       .  A
C2700      S2706   1.714       .  A
C2701      C2702   1.410       .  A
C2701      H2710   1.083       .  S
C2702      C2705   1.386       .  A
S2703      C2704   1.725       .  A
C2704      C2705   1.392       .  A
C2705      H2711   1.082       .  S
S2706      C2707   1.730       .  A
C2707      C2708   1.393       .  A
C2708      H2712   1.083       .  S
C2713      C2718   1.386       .  A
C2713      C2714   1.409       .  A
C2713      S2719   1.710       .  A
C2714      C2715   1.408       .  A
C2714      H2725   1.083       .  S
C2715      C2724   1.385       .  A
C2715      C2716   1.386       .  A
C2716      C2717   1.411       .  A
C2716      S2722   1.713       .  A
C2717      C2718   1.409       .  A
C2717      H2726   1.083       .  S
C2718      C2721   1.385       .  A
S2719      C2720   1.726       .  A
C2720      C2721   1.394       .  A
C2721      H2727   1.082       .  S
S2722      C2723   1.731       .  A
C2723      C2724   1.392       .  A
C2724      H2728   1.083       .  S
C2729      C2734   1.386       .  A
C2729      C2730   1.406       .  A
C2729      S2735   1.717       .  A
C2730      C2731   1.408       .  A
C2730      H2741   1.083       .  S
C2731      C2740   1.376       .  A
C2731      C2732   1.386       .  A
C2732      C2733   1.406   1_565  A
C2732      S2738   1.715   1_565  A
C2733      C2734   1.407   1_545  A
C2733      H2742   1.083       .  S
C2734      C2737   1.374   1_565  A
S2735      C2736   1.724       .  A
C2736      C2737   1.388   1_565  A
C2737      H2743   1.083   1_455  S
S2738      C2739   1.725   1_545  A
C2739      C2740   1.393       .  A
C2740      H2744   1.083       .  S
C2745      C2750   1.387   1_655  A
C2745      C2746   1.407       .  A
C2745      S2751   1.709       .  A
C2746      C2747   1.406   1_655  A
C2746      H2757   1.083       .  S
C2747      C2756   1.381       .  A
C2747      C2748   1.386       .  A
C2748      C2749   1.410       .  A
C2748      S2754   1.713       .  A
C2749      C2750   1.409       .  A
C2749      H2758   1.083       .  S
C2750      C2753   1.384       .  A
S2751      C2752   1.724   1_655  A
C2752      C2753   1.391       .  A
C2753      H2759   1.083       .  S
S2754      C2755   1.729       .  A
C2755      C2756   1.390       .  A
C2756      H2760   1.083   1_455  S
C2761      C2766   1.385       .  A
C2761      C2762   1.408       .  A
C2761      S2767   1.718   1_655  A
C2762      C2763   1.409       .  A
C2762      H2773   1.083   1_655  S
C2763      C2772   1.378       .  A
C2763      C2764   1.386       .  A
C2764      C2765   1.408       .  A
C2764      S2770   1.719       .  A
C2765      C2766   1.409       .  A
C2765      H2774   1.083       .  S
C2766      C2769   1.379       .  A
S2767      C2768   1.728   1_455  A
C2768      C2769   1.394       .  A
C2769      H2775   1.083       .  S
S2770      C2771   1.725       .  A
C2771      C2772   1.391       .  A
C2772      H2776   1.083   1_655  S
C2777      C2782   1.389       .  A
C2777      C2778   1.387       .  A
C2777      S2783   1.689       .  A
C2778      C2779   1.389       .  A
C2778      H2789   1.083       .  S
C2779      C2788   1.351       .  A
C2779      C2780   1.386       .  A
C2780      C2781   1.403       .  A
C2780      S2786   1.712       .  A
C2781      C2782   1.405       .  A
C2781      H2790   1.082       .  S
C2782      C2785   1.368       .  A
S2783      C2784   1.714       .  A
C2784      C2785   1.385       .  A
C2785      H2791   1.083       .  S
S2786      C2787   1.724       .  A
C2787      C2788   1.379       .  A
C2788      H2792   1.084       .  S
C2793      C2798   1.387       .  A
C2793      C2794   1.400       .  A
C2793      S2799   1.713       .  A
C2794      C2795   1.404       .  A
C2794      H2805   1.082       .  S
C2795      C2804   1.364       .  A
C2795      C2796   1.389       .  A
C2796      C2797   1.386       .  A
C2796      S2802   1.693       .  A
C2797      C2798   1.390       .  A
C2797      H2806   1.083       .  S
C2798      C2801   1.349       .  A
S2799      C2800   1.721       .  A
C2800      C2801   1.377       .  A
C2801      H2807   1.084       .  S
S2802      C2803   1.710       .  A
C2803      C2804   1.383       .  A
C2804      H2808   1.083       .  S
C2809      C2814   1.386       .  A
C2809      C2810   1.402       .  A
C2809      S2815   1.717       .  A
C2810      C2811   1.406       .  A
C2810      H2821   1.082       .  S
C2811      C2820   1.366       .  A
C2811      C2812   1.389       .  A
C2812      C2813   1.389       .  A
C2812      S2818   1.699       .  A
C2813      C2814   1.393       .  A
C2813      H2822   1.083       .  S
C2814      C2817   1.351       .  A
S2815      C2816   1.721       .  A
C2816      C2817   1.381       .  A
C2817      H2823   1.084       .  S
S2818      C2819   1.712       .  A
C2819      C2820   1.384       .  A
C2820      H2824   1.083       .  S
C2825      C2830   1.389       .  A
C2825      C2826   1.388       .  A
C2825      S2831   1.688       .  A
C2826      C2827   1.390       .  A
C2826      H2837   1.083       .  S
C2827      C2836   1.352       .  A
C2827      C2828   1.386       .  A
C2828      C2829   1.401       .  A
C2828      S2834   1.711       .  A
C2829      C2830   1.404       .  A
C2829      H2838   1.082       .  S
C2830      C2833   1.368       .  A
S2831      C2832   1.715       .  A
C2832      C2833   1.383       .  A
C2833      H2839   1.083       .  S
S2834      C2835   1.722       .  A
C2835      C2836   1.379       .  A
C2836      H2840   1.084       .  S
C2841      C2846   1.386       .  A
C2841      C2842   1.404       .  A
C2841      S2847   1.713       .  A
C2842      C2843   1.405       .  A
C2842      H2853   1.083       .  S
C2843      C2852   1.374       .  A
C2843      C2844   1.386       .  A
C2844      C2845   1.407       .  A
C2844      S2850   1.715       .  A
C2845      C2846   1.408       .  A
C2845      H2854   1.083       .  S
C2846      C2849   1.377       .  A
S2847      C2848   1.724       .  A
C2848      C2849   1.392       .  A
C2849      H2855   1.083       .  S
S2850      C2851   1.725       .  A
C2851      C2852   1.387       .  A
C2852      H2856   1.083       .  S
C2857      C2862   1.386       .  A
C2857      C2858   1.407       .  A
C2857      S2863   1.717       .  A
C2858      C2859   1.408       .  A
C2858      H2869   1.083       .  S
C2859      C2868   1.376       .  A
C2859      C2860   1.385       .  A
C2860      C2861   1.405       .  A
C2860      S2866   1.714       .  A
C2861      C2862   1.407       .  A
C2861      H2870   1.083       .  S
C2862      C2865   1.374       .  A
S2863      C2864   1.726       .  A
C2864      C2865   1.391       .  A
C2865      H2871   1.083       .  S
S2866      C2867   1.726       .  A
C2867      C2868   1.391       .  A
C2868      H2872   1.083       .  S
C2873      C2878   1.386       .  A
C2873      C2874   1.406       .  A
C2873      S2879   1.717       .  A
C2874      C2875   1.408       .  A
C2874      H2885   1.083       .  S
C2875      C2884   1.375       .  A
C2875      C2876   1.386       .  A
C2876      C2877   1.404       .  A
C2876      S2882   1.714       .  A
C2877      C2878   1.406       .  A
C2877      H2886   1.083   1_545  S
C2878      C2881   1.373       .  A
S2879      C2880   1.725       .  A
C2880      C2881   1.388       .  A
C2881      H2887   1.083       .  S
S2882      C2883   1.725       .  A
C2883      C2884   1.392       .  A
C2884      H2888   1.083       .  S
C2889      C2894   1.386       .  A
C2889      C2890   1.403       .  A
C2889      S2895   1.718       .  A
C2890      C2891   1.407       .  A
C2890      H2901   1.082       .  S
C2891      C2900   1.367       .  A
C2891      C2892   1.389       .  A
C2892      C2893   1.385       .  A
C2892      S2898   1.693       .  A
C2893      C2894   1.390       .  A
C2893      H2902   1.083       .  S
C2894      C2897   1.347       .  A
S2895      C2896   1.723       .  A
C2896      C2897   1.378       .  A
C2897      H2903   1.084       .  S
S2898      C2899   1.710       .  A
C2899      C2900   1.385       .  A
C2900      H2904   1.083       .  S
C2905      C2910   1.388       .  A
C2905      C2906   1.388       .  A
C2905      S2911   1.690       .  A
C2906      C2907   1.390       .  A
C2906      H2917   1.083       .  S
C2907      C2916   1.352       .  A
C2907      C2908   1.387       .  A
C2908      C2909   1.402       .  A
C2908      S2914   1.711       .  A
C2909      C2910   1.404       .  A
C2909      H2918   1.082       .  S
C2910      C2913   1.367       .  A
S2911      C2912   1.711       .  A
C2912      C2913   1.384       .  A
C2913      H2919   1.083   1_455  S
S2914      C2915   1.722       .  A
C2915      C2916   1.378       .  A
C2916      H2920   1.084       .  S
C2921      C2926   1.389       .  A
C2921      C2922   1.384       .  A
C2921      S2927   1.683       .  A
C2922      C2923   1.386       .  A
C2922      H2933   1.083       .  S
C2923      C2932   1.349       .  A
C2923      C2924   1.387       .  A
C2924      C2925   1.404       .  A
C2924      S2930   1.711       .  A
C2925      C2926   1.405       .  A
C2925      H2934   1.082       .  S
C2926      C2929   1.370       .  A
S2927      C2928   1.715       .  A
C2928      C2929   1.385       .  A
C2929      H2935   1.083       .  S
S2930      C2931   1.724       .  A
C2931      C2932   1.375       .  A
C2932      H2936   1.084       .  S
C2937      C2942   1.388       .  A
C2937      C2938   1.390       .  A
C2937      S2943   1.695       .  A
C2938      C2939   1.393       .  A
C2938      H2949   1.083       .  S
C2939      C2948   1.353       .  A
C2939      C2940   1.386       .  A
C2940      C2941   1.403       .  A
C2940      S2946   1.716       .  A
C2941      C2942   1.406       .  A
C2941      H2950   1.082       .  S
C2942      C2945   1.369       .  A
S2943      C2944   1.713       .  A
C2944      C2945   1.386       .  A
C2945      H2951   1.083   1_556  S
S2946      C2947   1.722       .  A
C2947      C2948   1.379       .  A
C2948      H2952   1.084       .  S
C2953      C2958   1.385       .  A
C2953      C2954   1.406       .  A
C2953      S2959   1.717       .  A
C2954      C2955   1.407       .  A
C2954      H2965   1.083       .  S
C2955      C2964   1.375       .  A
C2955      C2956   1.386       .  A
C2956      C2957   1.408       .  A
C2956      S2962   1.719       .  A
C2957      C2958   1.410       .  A
C2957      H2966   1.083       .  S
C2958      C2961   1.377       .  A
S2959      C2960   1.725       .  A
C2960      C2961   1.395       .  A
C2961      H2967   1.083       .  S
S2962      C2963   1.726       .  A
C2963      C2964   1.389       .  A
C2964      H2968   1.083       .  S
C2969      C2974   1.385       .  A
C2969      C2970   1.407   1_455  A
C2969      S2975   1.719   1_455  A
C2970      C2971   1.409   1_655  A
C2970      H2981   1.083       .  S
C2971      C2980   1.377       .  A
C2971      C2972   1.386       .  A
C2972      C2973   1.407       .  A
C2972      S2978   1.717       .  A
C2973      C2974   1.409       .  A
C2973      H2982   1.083       .  S
C2974      C2977   1.376       .  A
S2975      C2976   1.726   1_655  A
C2976      C2977   1.394       .  A
C2977      H2983   1.083       .  S
S2978      C2979   1.725       .  A
C2979      C2980   1.391       .  A
C2980      H2984   1.083   1_455  S
C2985      C2990   1.386       .  A
C2985      C2986   1.409       .  A
C2985      S2991   1.718       .  A
C2986      C2987   1.410       .  A
C2986      H2997   1.083       .  S
C2987      C2996   1.380       .  A
C2987      C2988   1.385       .  A
C2988      C2989   1.409       .  A
C2988      S2994   1.717       .  A
C2989      C2990   1.410       .  A
C2989      H2998   1.083       .  S
C2990      C2993   1.381       .  A
S2991      C2992   1.727       .  A
C2992      C2993   1.394       .  A
C2993      H2999   1.083       .  S
S2994      C2995   1.729       .  A
C2995      C2996   1.393       .  A
C2996      H3000   1.083       .  S
C3001      C3006   1.386       .  A
C3001      C3002   1.409       .  A
C3001      S3007   1.720       .  A
C3002      C3003   1.411       .  A
C3002      H3013   1.083       .  S
C3003      C3012   1.379       .  A
C3003      C3004   1.386   1_554  A
C3004      C3005   1.404       .  A
C3004      S3010   1.713       .  A
C3005      C3006   1.405   1_556  A
C3005      H3014   1.083       .  S
C3006      C3009   1.373   1_554  A
S3007      C3008   1.725       .  A
C3008      C3009   1.387   1_554  A
C3009      H3015   1.083       .  S
S3010      C3011   1.724   1_556  A
C3011      C3012   1.394       .  A
C3012      H3016   1.083       .  S
C3017      C3022   1.386       .  A
C3017      C3018   1.404       .  A
C3017      S3023   1.710       .  A
C3018      C3019   1.405       .  A
C3018      H3029   1.083       .  S
C3019      C3028   1.374       .  A
C3019      C3020   1.386       .  A
C3020      C3021   1.408       .  A
C3020      S3026   1.715       .  A
C3021      C3022   1.408       .  A
C3021      H3030   1.083       .  S
C3022      C3025   1.379       .  A
S3023      C3024   1.725       .  A
C3024      C3025   1.392       .  A
C3025      H3031   1.083       .  S
S3026      C3027   1.728       .  A
C3027      C3028   1.389       .  A
C3028      H3032   1.083       .  S
C3033      C3038   1.386       .  A
C3033      C3034   1.403       .  A
C3033      S3039   1.713       .  A
C3034      C3035   1.405       .  A
C3034      H3045   1.083       .  S
C3035      C3044   1.371       .  A
C3035      C3036   1.386       .  A
C3036      C3037   1.407       .  A
C3036      S3042   1.718       .  A
C3037      C3038   1.409       .  A
C3037      H3046   1.083   1_455  S
C3038      C3041   1.376       .  A
S3039      C3040   1.723       .  A
C3040      C3041   1.391       .  A
C3041      H3047   1.083   1_554  S
S3042      C3043   1.726       .  A
C3043      C3044   1.390       .  A
C3044      H3048   1.083       .  S
C3049      C3054   1.386       .  A
C3049      C3050   1.405   1_556  A
C3049      S3055   1.715   1_556  A
C3050      C3051   1.406   1_554  A
C3050      H3061   1.083       .  S
C3051      C3060   1.373   1_556  A
C3051      C3052   1.386       .  A
C3052      C3053   1.406       .  A
C3052      S3058   1.717       .  A
C3053      C3054   1.408       .  A
C3053      H3062   1.083       .  S
C3054      C3057   1.374       .  A
S3055      C3056   1.724   1_554  A
C3056      C3057   1.392       .  A
C3057      H3063   1.083       .  S
S3058      C3059   1.724       .  A
C3059      C3060   1.388   1_556  A
C3060      H3064   1.083       .  S
C3065      C3070   1.386       .  A
C3065      C3066   1.406       .  A
C3065      S3071   1.717       .  A
C3066      C3067   1.408       .  A
C3066      H3077   1.083       .  S
C3067      C3076   1.375       .  A
C3067      C3068   1.386       .  A
C3068      C3069   1.406   1_565  A
C3068      S3074   1.716   1_565  A
C3069      C3070   1.407   1_545  A
C3069      H3078   1.083       .  S
C3070      C3073   1.374   1_565  A
S3071      C3072   1.725       .  A
C3072      C3073   1.389   1_565  A
C3073      H3079   1.083   1_655  S
S3074      C3075   1.725   1_545  A
C3075      C3076   1.393       .  A
C3076      H3080   1.083       .  S
C3081      C3086   1.387   1_455  A
C3081      C3082   1.405       .  A
C3081      S3087   1.707       .  A
C3082      C3083   1.404       .  A
C3082      H3093   1.083       .  S
C3083      C3092   1.377       .  A
C3083      C3084   1.387   1_455  A
C3084      C3085   1.405       .  A
C3084      S3090   1.707       .  A
C3085      C3086   1.404       .  A
C3085      H3094   1.083       .  S
C3086      C3089   1.377       .  A
S3087      C3088   1.722       .  A
C3088      C3089   1.386   1_455  A
C3089      H3095   1.083       .  S
S3090      C3091   1.726       .  A
C3091      C3092   1.389   1_655  A
C3092      H3096   1.083       .  S
