geometry optimzed in LAMMPS
_audit_creation_date              2020-11-30 
_audit_creation_method            'lammps2cif' 
_symmetry_space_group_name_H-M    'P1' 
_symmetry_Int_Tables_number       1 
_symmetry_cell_setting            triclinic 
loop_ 
_symmetry_equiv_pos_as_xyz 
  x,y,z 
_cell_length_a                    44.71074585 
_cell_length_b                    40.562539903008926 
_cell_length_c                    42.777866585801185 
_cell_angle_alpha                 91.76727906400046 
_cell_angle_beta                  94.29685965438041 
_cell_angle_gamma                 88.99023805128323 
loop_ 
_atom_site_label 
_atom_site_type_symbol 
_atom_site_fract_x 
_atom_site_fract_y 
_atom_site_fract_z 
_atom_site_charge 
Zr1        Zr  0.76566281  0.72462224  0.70863779     2.17500
O2          O  0.75449256  0.68880792  0.66264150    -0.52100
O3          O  0.81787670  0.73495829  0.70221736    -0.75300
O4          O  0.76412793  0.75769356  0.66084792    -0.82100
O5          O  0.78596818  0.65747393  0.76744906    -0.83900
O6          O  0.73937328  0.80567702  0.67184703    -0.79500
O7          O  0.78843941  0.66973372  0.71607664    -0.91100
O8          O  0.83553811  0.77115401  0.74057518    -0.77100
O9          O  0.77104930  0.78115037  0.72383950    -0.86600
O10         O  0.78996622  0.72692404  0.76026593    -0.86300
O11         O  0.71534924  0.74665278  0.70661494    -0.73000
O12         O  0.73340529  0.69633277  0.74130823    -0.85200
Zr13       Zr  0.71193304  0.77767862  0.80838227     2.26400
Zr14       Zr  0.72140348  0.80283925  0.72371854     2.06300
Zr15       Zr  0.75761979  0.70014620  0.79300347     2.10000
Zr16       Zr  0.79500169  0.78342850  0.77502746     1.78800
O17         O  0.73183619  0.64955663  0.80283826    -0.94000
O18         O  0.80815869  0.83722869  0.75667521    -0.41800
O19         O  0.76279264  0.75684491  0.80892025    -0.78400
O20         O  0.74503096  0.80603975  0.77605216    -0.97100
O21         O  0.68862248  0.77618670  0.75634966    -0.90400
O22         O  0.70722950  0.72096996  0.79277273    -0.93200
C23         C  0.83873703  0.75251367  0.71609323     1.00500
C24         C  0.79420702  0.65125152  0.73983310     1.13400
C25         C  0.75387570  0.78666723  0.65364317     1.04200
O26         O  0.73881257  0.85773923  0.71343239    -0.95400
O27         O  0.69701411  0.84707175  0.75003890    -0.91100
O28         O  0.69055384  0.83335225  0.80034180    -0.84300
C29         C  0.68777317  0.85295774  0.77713899     1.10900
O30         O  0.67257568  0.67854295  0.69932558    -0.97400
Zr31       Zr  0.68371197  0.71989715  0.74081271     1.88900
O32         O  0.65810839  0.76816961  0.81240092    -0.74000
O33         O  0.67502610  0.80853265  0.69037272    -0.53300
O34         O  0.64672579  0.74090800  0.70134855    -0.98000
O35         O  0.66268710  0.66899703  0.75792686    -0.55200
O36         O  0.64121972  0.73757453  0.76975261    -0.74500
C37         C  0.63683215  0.75438559  0.79496245     0.97800
O38         O  0.71644624  0.81145785  0.85660163    -0.63400
O39         O  0.80099978  0.68625431  0.82818975    -0.58200
O40         O  0.72231005  0.74846763  0.85856376    -0.94800
O41         O  0.75329502  0.70502043  0.84854258    -0.93300
O42         O  0.83472569  0.76255869  0.81163495    -0.93600
O43         O  0.81023295  0.82382655  0.81616709    -0.92400
C44         C  0.73892341  0.72339481  0.86724374     1.16600
H45         H  0.80940983  0.71610419  0.76104095     0.32600
H46         H  0.74667796  0.82877349  0.78317803     0.43400
H47         H  0.69577002  0.70922755  0.80698999     0.37000
H48         H  0.70651340  0.74549386  0.68534133     0.33400
H49         H  0.81244339  0.83327823  0.73448410     0.25200
H50         H  0.66571234  0.82951429  0.69745304     0.31200
H51         H  0.63803839  0.76090337  0.71125086     0.37100
H52         H  0.84614454  0.74639443  0.79921215     0.31500
H53         H  0.80294792  0.66190889  0.82704124     0.30400
H54         H  0.74127561  0.64210796  0.82314224     0.32100
H55         H  0.65522370  0.67447271  0.77870119     0.31100
H56         H  0.79247442  0.82669298  0.82854845     0.35100
H57         H  0.72669718  0.83171936  0.85116860     0.27800
H58         H  0.77026553  0.69332825  0.64835476     0.32000
H59         H  0.68790935  0.68178788  0.68420866     0.34900
H60         H  0.81843914  0.69449256  0.81802471     0.27500
H61         H  0.69570791  0.81872608  0.86029503     0.40400
H62         H  0.72361069  0.86671158  0.69778057     0.30400
H63         H  0.78917960  0.85021545  0.75559806     0.38000
H64         H  0.68026032  0.65428638  0.76251290     0.29900
H65         H  0.68133205  0.81306366  0.66925702     0.30000
H66         H  0.73584239  0.69817975  0.65226438     0.30200
C67         C  0.59114739  0.01622642  0.78420588     0.85700
C68         C  0.61444331  0.04265694  0.78001440    -0.54600
C69         C  0.63318645  0.03550542  0.75686653     0.08600
C70         C  0.62623646  0.00240811  0.73917707     0.19600
C71         C  0.57434510  0.01230896  0.75159407    -0.55300
C72         C  0.59269923  0.00582924  0.72795720     0.08700
C73         C  0.60858533  0.98392018  0.78796476    -0.54800
C74         C  0.62678520  0.97646854  0.76488820     0.09300
H75         H  0.61596748  0.06528597  0.79427318     0.13800
H76         H  0.64128616  0.99623073  0.72027327    -0.00500
H77         H  0.55032440  0.01403401  0.74673721     0.14100
H78         H  0.60625534  0.96757407  0.80730811     0.13900
Zr79       Zr  0.71517395  0.22690616  0.77058332     2.17500
O80         O  0.67783362  0.23752690  0.80855833    -0.52100
O81         O  0.70208310  0.16910071  0.76120986    -0.75300
O82         O  0.66506084  0.23787889  0.74540458    -0.82100
O83         O  0.77782427  0.20636761  0.83347375    -0.83900
O84         O  0.66940877  0.26863174  0.70227754    -0.79500
O85         O  0.72701019  0.20875105  0.82477069    -0.91100
O86         O  0.72985183  0.14678062  0.72321909    -0.77100
O87         O  0.71892214  0.22004940  0.71531659    -0.86600
O88         O  0.76011239  0.19595382  0.76398026    -0.86300
O89         O  0.71626928  0.28141931  0.74956778    -0.73000
O90         O  0.75447729  0.26030408  0.79535542    -0.85200
Zr91       Zr  0.80530667  0.27623495  0.71173785     2.26400
Zr92       Zr  0.72177428  0.27403745  0.69420267     2.06300
Zr93       Zr  0.79940193  0.22917712  0.78783013     2.10000
Zr94       Zr  0.76367517  0.18909846  0.70888418     1.78800
O95         O  0.82319326  0.25177287  0.83676494    -0.94000
O96         O  0.73371002  0.17439478  0.66062579    -0.41800
O97         O  0.80414382  0.22168261  0.73251281    -0.78400
O98         O  0.76641412  0.24251399  0.68661422    -0.97100
O99         O  0.76062440  0.30730973  0.71850373    -0.90400
O100        O  0.80113612  0.28318465  0.76696548    -0.93200
C101        C  0.70993112  0.14507361  0.74313831     1.00500
C102        C  0.75118066  0.20211365  0.84204702     1.13400
C103        C  0.65403813  0.25400056  0.72164259     1.04200
O104        O  0.69592211  0.25035942  0.64686346    -0.95400
O105        O  0.74383645  0.29655712  0.64855404    -0.91100
O106        O  0.79409392  0.30107570  0.65980765    -0.84300
C107        C  0.77009651  0.30493315  0.64136975     1.10900
O108        O  0.72562561  0.32805481  0.81697286    -0.97400
Zr109      Zr  0.75626046  0.31399565  0.77349742     1.88900
O110        O  0.81684681  0.33383061  0.72161605    -0.74000
O111        O  0.69910520  0.32861809  0.68719354    -0.53300
O112        O  0.71902935  0.35725813  0.76140773    -0.98000
O113        O  0.78680606  0.33303055  0.82000791    -0.55200
O114        O  0.78660600  0.35813201  0.75614897    -0.74500
C115        C  0.80774017  0.35893525  0.73751869     0.97800
O116        O  0.84293698  0.26024995  0.67543297    -0.63400
O117        O  0.82410815  0.17545735  0.79346545    -0.58200
O118        O  0.85566490  0.26975009  0.73773903    -0.94800
O119        O  0.85182491  0.23790166  0.78025452    -0.93300
O120        O  0.79583304  0.14200097  0.72312294    -0.93600
O121        O  0.79600631  0.17026832  0.66828295    -0.92400
C122        C  0.86693256  0.25405048  0.76167273     1.16600
H123        H  0.76019232  0.17498980  0.77411676     0.32600
H124        H  0.76916214  0.23970477  0.66450756     0.43400
H125        H  0.81803151  0.29510688  0.77663936     0.37000
H126        H  0.69770791  0.29303923  0.75302259     0.33400
H127        H  0.73323838  0.14998588  0.66007088     0.25200
H128        H  0.71625246  0.34368369  0.68680584     0.31200
H129        H  0.72655684  0.36891808  0.74366453     0.37100
H130        H  0.81625503  0.15109591  0.72657561     0.31500
H131        H  0.83856848  0.17422128  0.77702516     0.30400
H132        H  0.83399734  0.27145089  0.83080050     0.32100
H133        H  0.80659332  0.33842004  0.81272691     0.31100
H134        H  0.79336912  0.18688495  0.65179309     0.35100
H135        H  0.85207643  0.23956212  0.68369785     0.27800
H136        H  0.66176065  0.22138354  0.80316374     0.32000
H137        H  0.73061183  0.35110416  0.82336068     0.34900
H138        H  0.83680023  0.17753901  0.81339051     0.27500
H139        H  0.83138056  0.25297096  0.65586389     0.40400
H140        H  0.68493392  0.26919459  0.63693856     0.30400
H141        H  0.71292968  0.18135970  0.66444097     0.38000
H142        H  0.79060889  0.31305744  0.83251195     0.29900
H143        H  0.68997869  0.32808457  0.66537243     0.30000
H144        H  0.66870461  0.25927587  0.80332591     0.30200
C145        C  0.90753655  0.51289286  0.69223924     0.85700
C146        C  0.88230821  0.53876761  0.69543483    -0.54600
C147        C  0.86674334  0.53563407  0.72120647     0.08600
C148        C  0.87745573  0.50672946  0.74192059     0.19600
C149        C  0.92665807  0.51600396  0.72340255    -0.55300
C150        C  0.91139086  0.51196341  0.74937089     0.08700
C151        C  0.89125170  0.47985317  0.69324161    -0.54800
C152        C  0.87566702  0.47641406  0.71927601     0.09300
H153        H  0.87671439  0.55868138  0.67975525     0.13800
H154        H  0.86472634  0.50454153  0.76305636    -0.00500
H155        H  0.95065347  0.52023037  0.72476317     0.14100
H156        H  0.89164960  0.46107111  0.67462610     0.13900
C157        C  0.75896032  0.86298690  0.53962664     0.85700
C158        C  0.72993769  0.88371095  0.53760632    -0.54600
C159        C  0.72661609  0.90486326  0.51328301     0.08600
C160        C  0.75433346  0.90375826  0.49273698     0.19600
C161        C  0.76013426  0.84617328  0.50666693    -0.55300
C162        C  0.75800607  0.86724918  0.48174381     0.08700
C163        C  0.78405006  0.88866342  0.54028277    -0.54800
C164        C  0.78276339  0.90908806  0.51553950     0.09300
H165        H  0.71278660  0.88117000  0.55403108     0.13800
H166        H  0.75184949  0.92161039  0.47364845    -0.00500
H167        H  0.76377388  0.81978012  0.50366623     0.14100
H168        H  0.80430151  0.88798951  0.55568597     0.13900
Zr169      Zr  0.70125000  0.74207856  0.21234360     2.17500
O170        O  0.65995167  0.75083410  0.17289144    -0.52100
O171        O  0.69318872  0.68399554  0.21995933    -0.75300
O172        O  0.71473079  0.71635624  0.16212610    -0.82100
O173        O  0.65725594  0.77473092  0.28035907    -0.83900
O174        O  0.76131842  0.73333532  0.15242294    -0.79500
O175        O  0.65181052  0.74415951  0.23479478    -0.91100
O176        O  0.73291143  0.66462656  0.25029467    -0.77100
O177        O  0.75138015  0.72088984  0.21619174    -0.86600
O178        O  0.71399949  0.73132335  0.26617910    -0.86300
O179        O  0.73161190  0.78445502  0.19299367    -0.73000
O180        O  0.69740007  0.79477330  0.23946143    -0.85200
Zr181      Zr  0.79320014  0.80258916  0.27964863     2.26400
Zr182      Zr  0.78179829  0.76308144  0.19815536     2.06300
Zr183      Zr  0.71076564  0.78323810  0.29307805     2.10000
Zr184      Zr  0.76398598  0.71000136  0.26971467     1.78800
O185        O  0.68089707  0.82686663  0.31654294    -0.94000
O186        O  0.79975640  0.67147795  0.24754814    -0.41800
O187        O  0.76116950  0.76140963  0.29849315    -0.78400
O188        O  0.79627361  0.75046171  0.25168523    -0.97100
O189        O  0.77998248  0.81464316  0.22605202    -0.90400
O190        O  0.74285000  0.82460307  0.27587673    -0.93200
C191        C  0.70797610  0.66066691  0.23392697     1.00500
C192        C  0.64129316  0.75823725  0.25928275     1.13400
C193        C  0.73745017  0.71711751  0.14521025     1.04200
O194        O  0.81448184  0.72178475  0.17520821    -0.95400
O195        O  0.83434071  0.77434458  0.20696234    -0.91100
O196        O  0.84338384  0.79733681  0.25586475    -0.84300
C197        C  0.85217608  0.78590593  0.22921155     1.10900
O198        O  0.69118561  0.84995638  0.18162214    -0.97400
Zr199      Zr  0.72990280  0.83586459  0.22236762     1.88900
O200        O  0.79980565  0.86064066  0.27182135    -0.74000
O201        O  0.78745388  0.80228244  0.15708781    -0.53300
O202        O  0.74846446  0.86221447  0.17735208    -0.98000
O203        O  0.69259045  0.87306450  0.24366594    -0.55200
O204        O  0.76032433  0.88195750  0.24226277    -0.74500
C205        C  0.78561799  0.88464152  0.25834990     0.97800
O206        O  0.83437837  0.79828881  0.32005517    -0.63400
O207        O  0.69611646  0.74275591  0.32964146    -0.58200
O208        O  0.78255627  0.81881230  0.33445981    -0.94800
O209        O  0.73434172  0.80527291  0.34162904    -0.93300
O210        O  0.74812045  0.68349725  0.31591503    -0.93600
O211        O  0.80538361  0.69570333  0.30736244    -0.92400
C212        C  0.75996930  0.81666537  0.35160850     1.16600
H213        H  0.70029033  0.71606150  0.27407766     0.32600
H214        H  0.81646360  0.74149948  0.25378569     0.43400
H215        H  0.74141009  0.84439481  0.28880749     0.37000
H216        H  0.72563780  0.78810925  0.17119092     0.33400
H217        H  0.78861015  0.65084616  0.24273725     0.25200
H218        H  0.80366758  0.81705256  0.16564098     0.31200
H219        H  0.74392728  0.88602026  0.18051201     0.37100
H220        H  0.75299482  0.65979302  0.31258871     0.31500
H221        H  0.71524613  0.73459877  0.33995625     0.30400
H222        H  0.67170559  0.83918060  0.29855067     0.32100
H223        H  0.69296067  0.89310841  0.23107127     0.31100
H224        H  0.81294274  0.71719771  0.31591387     0.35100
H225        H  0.84537503  0.77774754  0.31463216     0.27800
H226        H  0.65513200  0.72855009  0.16402821     0.32000
H227        H  0.67356119  0.83709636  0.18641887     0.34900
H228        H  0.68644526  0.75586016  0.34609977     0.27500
H229        H  0.84810674  0.81633856  0.31609911     0.40400
H230        H  0.82217297  0.73237378  0.15691719     0.30400
H231        H  0.80311057  0.68023888  0.22677399     0.38000
H232        H  0.70141537  0.88010913  0.26466787     0.29900
H233        H  0.79647729  0.78919363  0.14017986     0.30000
H234        H  0.66896462  0.76221841  0.15582209     0.30200
C235        C  0.72223363  0.59300743  0.99688036     0.85700
C236        C  0.72206476  0.61788766  0.97030215    -0.54600
C237        C  0.74316094  0.64183922  0.97429936     0.08600
C238        C  0.76477878  0.63719495  0.00412712     0.19600
C239        C  0.75422476  0.57815487  0.99882572    -0.55300
C240        C  0.77687191  0.60092675  0.00177310     0.08700
C241        C  0.72096728  0.61532583  0.02622438    -0.54800
C242        C  0.74336467  0.63760891  0.03105471     0.09300
H243        H  0.70586534  0.61813947  0.95027234     0.13800
H244        H  0.78284607  0.65564429  0.00727387    -0.00500
H245        H  0.75849378  0.55173931  0.99770529     0.14100
H246        H  0.70317151  0.61396131  0.04206980     0.13900
C247        C  0.52603091  0.74691955  0.31339540     0.85700
C248        C  0.53116136  0.71844394  0.33628795    -0.54600
C249        C  0.50949208  0.71512147  0.35652666     0.08600
C250        C  0.48365154  0.74077896  0.35224841     0.19600
C251        C  0.49438427  0.74091237  0.29708400    -0.55300
C252        C  0.47206075  0.73770357  0.31730539     0.08700
C253        C  0.52175122  0.77717199  0.33578699    -0.54800
C254        C  0.49922666  0.77439918  0.35552501     0.09300
H255        H  0.55061726  0.70208982  0.33710637     0.13800
H256        H  0.46585119  0.73810471  0.36872959    -0.00500
H257        H  0.48993206  0.74065097  0.27178802     0.14100
H258        H  0.53566520  0.79882769  0.33674079     0.13900
C259        C  0.09037950  0.03024752  0.76505692     0.85700
C260        C  0.11321856  0.05317464  0.75283144    -0.54600
C261        C  0.12550797  0.04095113  0.72661380     0.08600
C262        C  0.11369382  0.00734874  0.71454033     0.19600
C263        C  0.06727099  0.02371840  0.73709584    -0.55300
C264        C  0.07949983  0.01180205  0.71092621     0.08700
C265        C  0.10691476  0.99692612  0.76900888    -0.54800
C266        C  0.11912134  0.98506596  0.74269430     0.09300
H267        H  0.11954929  0.07664667  0.76412730     0.13800
H268        H  0.12363414  0.99800955  0.69287042    -0.00500
H269        H  0.04319733  0.02677810  0.73730819     0.14100
H270        H  0.10920762  0.98407167  0.79095330     0.13900
C271        C  0.70692924  0.10507031  0.99215195     0.85700
C272        C  0.70706695  0.13029191  0.96581866    -0.54600
C273        C  0.73376280  0.14580844  0.96385163     0.08600
C274        C  0.75770559  0.13625981  0.99036238     0.19600
C275        C  0.73436133  0.08232373  0.98727208    -0.55300
C276        C  0.76116768  0.09827325  0.98698438     0.08700
C277        C  0.71623703  0.12594274  0.02214737    -0.54800
C278        C  0.74271136  0.14192655  0.02149688     0.09300
H279        H  0.68826752  0.13384765  0.94862587     0.13800
H280        H  0.77891056  0.14998927  0.99002341    -0.00500
H281        H  0.73219570  0.05593253  0.98334894     0.14100
H282        H  0.70322874  0.12907427  0.04238314     0.13900
C283        C  0.39457146  0.50258969  0.75879099     0.85700
C284        C  0.37878715  0.46989181  0.74948301    -0.54600
C285        C  0.36352829  0.46998187  0.72080346     0.08600
C286        C  0.36466564  0.50246415  0.70384230     0.19600
C287        C  0.41408389  0.50830679  0.73160474    -0.55300
C288        C  0.39839160  0.50844279  0.70298331     0.08700
C289        C  0.36933856  0.52842593  0.75575964    -0.54800
C290        C  0.35391768  0.52873776  0.72709187     0.09300
H291        H  0.37858265  0.44817376  0.76343257     0.13800
H292        H  0.35183790  0.50213840  0.68057149    -0.00500
H293        H  0.43835299  0.51006317  0.73456225     0.14100
H294        H  0.36427446  0.54548977  0.77480623     0.13900
C295        C  0.73261501  0.42465206  0.50012754     0.85700
C296        C  0.73804390  0.40228295  0.52856533    -0.54600
C297        C  0.76245573  0.38152437  0.52763024     0.08600
C298        C  0.77898588  0.38420842  0.49693705     0.19600
C299        C  0.76261678  0.44201529  0.49743725    -0.55300
C300        C  0.78709322  0.42129139  0.49571057     0.08700
C301        C  0.73011509  0.39945065  0.47254188    -0.54800
C302        C  0.75433843  0.37930864  0.46949906     0.09300
H303        H  0.72311703  0.40121088  0.54727851     0.13800
H304        H  0.79844824  0.36698489  0.49586199    -0.00500
H305        H  0.76417026  0.46864954  0.49649657     0.14100
H306        H  0.71074888  0.39801840  0.45566948     0.13900
C307        C  0.60173784  0.52446683  0.27550441     0.85700
C308        C  0.62763972  0.54890919  0.27407545    -0.54600
C309        C  0.64539604  0.54229372  0.25004028     0.08600
C310        C  0.63623411  0.51187781  0.22975181     0.19600
C311        C  0.58536746  0.52598480  0.24284929    -0.55300
C312        C  0.60331880  0.51899710  0.21908239     0.08700
C313        C  0.61750405  0.49069382  0.27690786    -0.54800
C314        C  0.63520597  0.48384403  0.25302716     0.09300
H315        H  0.63094204  0.57114496  0.28841323     0.13800
H316        H  0.65080826  0.50674196  0.21018753    -0.00500
H317        H  0.56177730  0.53259715  0.23878102     0.14100
H318        H  0.61555055  0.47394467  0.29597513     0.13900
C319        C  0.28779943  0.59051762  0.48221738     0.85700
C320        C  0.28262649  0.61453921  0.50963153    -0.54600
C321        C  0.25764483  0.63414131  0.50591446     0.08600
C322        C  0.23895797  0.62733809  0.47410831     0.19600
C323        C  0.25846403  0.57080122  0.47791170    -0.55300
C324        C  0.23280266  0.58952882  0.47369851     0.08700
C325        C  0.28663507  0.61192514  0.45306842    -0.54800
C326        C  0.26151181  0.63154145  0.44824360     0.09300
H327        H  0.29741479  0.61538018  0.53099289     0.13800
H328        H  0.21824065  0.64271968  0.47107624    -0.00500
H329        H  0.25723631  0.54422972  0.47810932     0.14100
H330        H  0.30448361  0.61124304  0.43716291     0.13900
C331        C  0.95896297  0.77798631  0.15927763     0.85700
C332        C  0.95868579  0.74647321  0.13772768    -0.54600
C333        C  0.97847858  0.74609928  0.11470272     0.08600
C334        C  0.99665637  0.77830745  0.11494468     0.19600
C335        C  0.99235989  0.78122991  0.17135704    -0.55300
C336        C  0.01257700  0.78095529  0.14842606     0.08700
C337        C  0.95311469  0.80567707  0.13577743    -0.54800
C338        C  0.97285283  0.80651381  0.11309976     0.09300
H339        H  0.94403039  0.72584522  0.13975291     0.13800
H340        H  0.01196932  0.77976348  0.09600971    -0.00500
H341        H  0.99922205  0.78253216  0.19622007     0.14100
H342        H  0.93488958  0.82360030  0.13712890     0.13900
Zr343      Zr  0.27354411  0.70726274  0.25310699     2.17500
O344        O  0.30345434  0.65865706  0.24009943    -0.52100
O345        O  0.26877617  0.69565841  0.30858540    -0.75300
O346        O  0.32704837  0.71536872  0.27154102    -0.82100
O347        O  0.20035612  0.66743813  0.22366661    -0.83900
O348        O  0.33729724  0.76913713  0.26395463    -0.79500
O349        O  0.24534531  0.65568070  0.25000204    -0.91100
O350        O  0.23664034  0.73291266  0.32893994    -0.77100
O351        O  0.27536334  0.76048739  0.27807906    -0.86600
O352        O  0.22314911  0.72253122  0.26285130    -0.86300
O353        O  0.29290858  0.74293773  0.21549876    -0.73000
O354        O  0.24512256  0.70786433  0.20264850    -0.85200
Zr355      Zr  0.21445645  0.81246134  0.20063555     2.26400
Zr356      Zr  0.29276452  0.79649349  0.24056512     2.06300
Zr357      Zr  0.19505917  0.72458047  0.21313613     2.10000
Zr358      Zr  0.22539038  0.77496896  0.28870126     1.78800
O359        O  0.17432709  0.69072348  0.16900070    -0.94000
O360        O  0.25541536  0.80323006  0.33098054    -0.41800
O361        O  0.19585321  0.77739521  0.23900452    -0.78400
O362        O  0.24272104  0.81273628  0.25163426    -0.97100
O363        O  0.26481435  0.79728881  0.19079345    -0.90400
O364        O  0.21338903  0.75945502  0.17539109    -0.93200
C365        C  0.25328363  0.70658516  0.33103830     1.00500
C366        C  0.21888758  0.64801967  0.23832003     1.13400
C367        C  0.34488865  0.74024283  0.27337961     1.04200
O368        O  0.29721461  0.83713823  0.28374693    -0.95400
O369        O  0.29131936  0.84295418  0.20658091    -0.91100
O370        O  0.24364835  0.86265966  0.20441633    -0.84300
C371        C  0.27199519  0.86647416  0.20385004     1.10900
O372        O  0.29799050  0.70174577  0.14841355    -0.97400
Zr373      Zr  0.26370889  0.74463695  0.16593541     1.88900
O374        O  0.21852593  0.82351277  0.14475321    -0.74000
O375        O  0.34353721  0.81300951  0.23153821    -0.53300
O376        O  0.30970949  0.76412126  0.14612492    -0.98000
O377        O  0.23743111  0.70911533  0.12629130    -0.55200
O378        O  0.24892256  0.78387385  0.12515363    -0.74500
C379        C  0.23283788  0.81041212  0.12229132     0.97800
O380        O  0.18288352  0.86079404  0.21026294    -0.63400
O381        O  0.15462869  0.71241725  0.24596512    -0.58200
O382        O  0.15997499  0.80618986  0.18655610    -0.94800
O383        O  0.14995704  0.75184634  0.19104774    -0.93300
O384        O  0.17646412  0.76445203  0.30747935    -0.93600
O385        O  0.20028115  0.82475595  0.30735950    -0.92400
C386        C  0.14199903  0.78146195  0.18433038     1.16600
H387        H  0.21430764  0.70683119  0.27575507     0.32600
H388        H  0.24243094  0.83481125  0.26069217     0.43400
H389        H  0.20052806  0.75928290  0.15623387     0.37000
H390        H  0.31319194  0.73629541  0.21167298     0.33400
H391        H  0.24593919  0.79772130  0.35031415     0.25200
H392        H  0.34407722  0.81376889  0.20847390     0.31200
H393        H  0.31234088  0.78663283  0.15543602     0.37100
H394        H  0.18069244  0.75803867  0.32953107     0.31500
H395        H  0.14715681  0.73425016  0.25321241     0.30400
H396        H  0.17603387  0.70419819  0.15033452     0.32100
H397        H  0.24190463  0.68628628  0.13298084     0.31100
H398        H  0.18920582  0.83350982  0.28839096     0.35100
H399        H  0.19186333  0.87127545  0.22989292     0.27800
H400        H  0.31325619  0.65156280  0.26036853     0.32000
H401        H  0.30164547  0.68739770  0.16666082     0.34900
H402        H  0.13827624  0.70380784  0.23122440     0.27500
H403        H  0.18665034  0.87628882  0.19359875     0.40400
H404        H  0.29588386  0.85874844  0.27353597     0.30400
H405        H  0.27491942  0.79122272  0.33259234     0.38000
H406        H  0.24835436  0.71139556  0.10719177     0.29900
H407        H  0.34491415  0.83631555  0.23903929     0.30000
H408        H  0.31993823  0.66701192  0.22845348     0.30200
C409        C  0.26523446  0.92510778  0.97811563     0.85700
C410        C  0.26092863  0.90170078  0.94880725    -0.54600
C411        C  0.23616434  0.88224842  0.94800756     0.08600
C412        C  0.21813223  0.88728098  0.97751742     0.19600
C413        C  0.23535008  0.94399471  0.97836273    -0.55300
C414        C  0.21058271  0.92476136  0.97840691     0.08700
C415        C  0.26571905  0.90161373  0.00569375    -0.54800
C416        C  0.24117092  0.88207986  0.00611247     0.09300
H417        H  0.27548114  0.90040988  0.92969093     0.13800
H418        H  0.19823013  0.87128839  0.97740534    -0.00500
H419        H  0.23405485  0.97058945  0.97643668     0.14100
H420        H  0.28374227  0.90129981  0.02416426     0.13900
C421        C  0.53543359  0.25813793  0.66232427     0.85700
C422        C  0.53013825  0.28617849  0.63910247    -0.54600
C423        C  0.50566031  0.28223909  0.61832063     0.08600
C424        C  0.48893639  0.24945814  0.62201749     0.19600
C425        C  0.50575138  0.25467011  0.67755384    -0.55300
C426        C  0.48121678  0.25041040  0.65689684     0.08700
C427        C  0.53786007  0.22793712  0.64017532    -0.54800
C428        C  0.51368290  0.22194044  0.61963395     0.09300
H429        H  0.54522691  0.30649166  0.63736182     0.13800
H430        H  0.46887049  0.24650957  0.60547418    -0.00500
H431        H  0.50427329  0.25604039  0.70279091     0.14100
H432        H  0.55813231  0.21281822  0.64014603     0.13900
Zr433      Zr  0.29876206  0.27479906  0.74096088     2.17500
O434        O  0.33868800  0.26993320  0.78267098    -0.52100
O435        O  0.30902873  0.33069519  0.72630645    -0.75300
O436        O  0.34840526  0.26569059  0.71904144    -0.82100
O437        O  0.23962876  0.28962348  0.80025088    -0.83900
O438        O  0.33979340  0.24055331  0.67110270    -0.79500
O439        O  0.28860674  0.29919938  0.79376213    -0.91100
O440        O  0.27306404  0.34906850  0.69021852    -0.77100
O441        O  0.28688227  0.28144294  0.68604676    -0.86600
O442        O  0.24995706  0.29962066  0.73420083    -0.86300
O443        O  0.29999022  0.22001265  0.71720767    -0.73000
O444        O  0.26527995  0.23668673  0.76184567    -0.85200
Zr445      Zr  0.20481040  0.21460770  0.67520905     2.26400
Zr446      Zr  0.28732512  0.22735713  0.66241690     2.06300
Zr447      Zr  0.21669306  0.26162276  0.75434014     2.10000
Zr448      Zr  0.23800282  0.30550370  0.67936905     1.78800
O449        O  0.20007360  0.22461570  0.79317597    -0.94000
O450        O  0.25181923  0.31970564  0.62750747    -0.41800
O451        O  0.20395562  0.26873856  0.69956816    -0.78400
O452        O  0.23847834  0.25218493  0.65416246    -0.97100
O453        O  0.25362289  0.18972730  0.68208010    -0.90400
O454        O  0.21657100  0.20758677  0.73046361    -0.93200
C455        C  0.29722566  0.35251582  0.70779737     1.00500
C456        C  0.26510081  0.30149226  0.80983175     1.13400
C457        C  0.35744709  0.25318834  0.69310024     1.04200
O458        O  0.30132510  0.25393306  0.61547508    -0.95400
O459        O  0.26394412  0.19889629  0.61679484    -0.91100
O460        O  0.21438679  0.19127958  0.62180544    -0.84300
C461        C  0.23813238  0.18842459  0.60612610     1.10900
O462        O  0.30379332  0.17138921  0.77819159    -0.97400
Zr463      Zr  0.26518706  0.18292685  0.73656530     1.88900
O464        O  0.19917351  0.15667264  0.68032236    -0.74000
O465        O  0.31622925  0.17705815  0.65273556    -0.53300
O466        O  0.30015344  0.14219044  0.71650915    -0.98000
O467        O  0.24883606  0.15864259  0.78371708    -0.55200
O468        O  0.23154327  0.13830640  0.71950870    -0.74500
C469        C  0.20954620  0.13432589  0.69876974     0.97800
O470        O  0.16203960  0.22543021  0.63801732    -0.63400
O471        O  0.18418476  0.30373463  0.77672100    -0.58200
O472        O  0.15829747  0.21721061  0.70483603    -0.94800
O473        O  0.16668691  0.26539184  0.73032694    -0.93300
O474        O  0.20693626  0.34964984  0.70026479    -0.93600
O475        O  0.19603790  0.32277928  0.64369474    -0.92400
C476        C  0.15041436  0.24029066  0.72429231     1.16600
H477        H  0.24911194  0.32078251  0.74514372     0.32600
H478        H  0.23331272  0.25458621  0.63200594     0.43400
H479        H  0.20210557  0.19383258  0.73914222     0.37000
H480        H  0.31982938  0.21032548  0.72051327     0.33400
H481        H  0.25229547  0.34410908  0.62794534     0.25200
H482        H  0.32842167  0.18221535  0.63517328     0.31200
H483        H  0.29151346  0.12059032  0.72063246     0.37100
H484        H  0.18878355  0.33853213  0.70632694     0.31500
H485        H  0.18389746  0.29921836  0.79931259     0.30400
H486        H  0.20088892  0.23792549  0.81300742     0.32100
H487        H  0.25219218  0.13459456  0.78064979     0.31100
H488        H  0.18772186  0.30192257  0.63439792     0.35100
H489        H  0.14932426  0.24159135  0.64896411     0.27800
H490        H  0.35298893  0.28752164  0.77901226     0.32000
H491        H  0.31489203  0.19227045  0.78153493     0.34900
H492        H  0.19499893  0.32475192  0.77589530     0.27500
H493        H  0.17038023  0.23829773  0.62148704     0.40400
H494        H  0.31650560  0.23889194  0.60677552     0.30400
H495        H  0.27310916  0.31271953  0.62711860     0.38000
H496        H  0.22675122  0.16145938  0.78223587     0.29900
H497        H  0.33093385  0.17529797  0.67111636     0.30000
H498        H  0.34942342  0.24902504  0.77792469     0.30200
C499        C  0.04633110  0.25129766  0.80214550     0.85700
C500        C  0.04620688  0.22482931  0.82718730    -0.54600
C501        C  0.02340226  0.22766685  0.84686845     0.08600
C502        C  0.00274594  0.25796917  0.83969038     0.19600
C503        C  0.01476762  0.24976683  0.78522628    -0.55300
C504        C  0.99207626  0.25316025  0.80460650     0.08700
C505        C  0.04556321  0.28478599  0.82072169    -0.54800
C506        C  0.02306017  0.28874787  0.84105291     0.09300
H507        H  0.06243025  0.20458069  0.82823332     0.13800
H508        H  0.98486039  0.26001303  0.85572421    -0.00500
H509        H  0.00991572  0.24747881  0.76010432     0.14100
H510        H  0.06139602  0.30399807  0.81712831     0.13900
Zr511      Zr  0.71202579  0.28376513  0.27804745     2.17500
O512        O  0.67384499  0.27281779  0.31403690    -0.52100
O513        O  0.69875856  0.34146207  0.27132651    -0.75300
O514        O  0.72776008  0.30438234  0.33199859    -0.82100
O515        O  0.66561443  0.25094019  0.20567246    -0.83900
O516        O  0.77643685  0.28944973  0.34462089    -0.79500
O517        O  0.66049294  0.27518219  0.25374924    -0.91100
O518        O  0.73293638  0.36502679  0.24277179    -0.77100
O519        O  0.76017053  0.30833214  0.27858512    -0.86600
O520        O  0.71898416  0.29792976  0.22520805    -0.86300
O521        O  0.74743072  0.24263894  0.29778602    -0.73000
O522        O  0.70983341  0.23329865  0.24688273    -0.85200
Zr523      Zr  0.80098667  0.23183674  0.21332682     2.26400
Zr524      Zr  0.79585325  0.26709177  0.29666970     2.06300
Zr525      Zr  0.71792861  0.24789768  0.19436746     2.10000
Zr526      Zr  0.76700009  0.32233895  0.22603060     1.78800
O527        O  0.68754703  0.20644896  0.16518579    -0.94000
O528        O  0.80232767  0.36118514  0.25210379    -0.41800
O529        O  0.76585625  0.27296476  0.19372889    -0.78400
O530        O  0.80377261  0.28242965  0.24412470    -0.97100
O531        O  0.79365591  0.21729688  0.26581911    -0.90400
O532        O  0.75300176  0.20684726  0.21319021    -0.93200
C533        C  0.70925674  0.36615084  0.25780187     1.00500
C534        C  0.64960160  0.26194428  0.22751221     1.13400
C535        C  0.75149000  0.30306669  0.35125692     1.04200
O536        O  0.82719544  0.31255915  0.31693119    -0.95400
O537        O  0.84798798  0.25291848  0.28904077    -0.91100
O538        O  0.85239859  0.23579997  0.23832458    -0.84300
C539        C  0.86351922  0.24297790  0.26637966     1.10900
O540        O  0.70261664  0.17595024  0.29270037    -0.97400
Zr541      Zr  0.74570612  0.19309582  0.26578713     1.88900
O542        O  0.81535758  0.17522512  0.22170791    -0.74000
O543        O  0.81380880  0.22978025  0.33778971    -0.53300
O544        O  0.76240756  0.17090344  0.31659571    -0.98000
O545        O  0.71813599  0.14834935  0.23800135    -0.55200
O546        O  0.78449117  0.15319149  0.25517503    -0.74500
C547        C  0.80716840  0.15196905  0.23859810     0.97800
O548        O  0.83569146  0.24469330  0.17430076    -0.63400
O549        O  0.70029255  0.28919981  0.15681139    -0.58200
O550        O  0.78818834  0.21107949  0.15920575    -0.94800
O551        O  0.73925313  0.22506265  0.14732564    -0.93300
O552        O  0.74477888  0.34637788  0.17806416    -0.93600
O553        O  0.80359424  0.34433287  0.19315065    -0.92400
C554        C  0.76448003  0.21245613  0.14006437     1.16600
H555        H  0.70327961  0.31261859  0.21696241     0.32600
H556        H  0.82328864  0.29206266  0.24347463     0.43400
H557        H  0.75196768  0.18731838  0.19966089     0.37000
H558        H  0.74354603  0.23750988  0.31901249     0.33400
H559        H  0.79085663  0.38207485  0.25427980     0.25200
H560        H  0.82492352  0.24398508  0.35375842     0.31200
H561        H  0.76625188  0.14712126  0.31239904     0.37100
H562        H  0.74572216  0.37053408  0.18202668     0.31500
H563        H  0.70205006  0.27829087  0.13601000     0.30400
H564        H  0.67620924  0.21871069  0.14835499     0.32100
H565        H  0.73099000  0.14029072  0.22144390     0.31100
H566        H  0.80955888  0.32524579  0.17989940     0.35100
H567        H  0.84470685  0.26590676  0.18174400     0.27800
H568        H  0.66822769  0.29472894  0.32284839     0.32000
H569        H  0.70700233  0.15288763  0.29871122     0.34900
H570        H  0.67840547  0.29106309  0.15881368     0.27500
H571        H  0.85220971  0.22820060  0.17692185     0.40400
H572        H  0.83644887  0.30501259  0.33727855     0.30400
H573        H  0.80576016  0.35342098  0.27378520     0.38000
H574        H  0.70095728  0.15942577  0.22645285     0.29900
H575        H  0.79562322  0.22339085  0.34783129     0.30000
H576        H  0.68455256  0.26134452  0.33176873     0.30200
C577        C  0.90203236  0.99953870  0.19494642     0.85700
C578        C  0.89164329  0.03495425  0.20330076    -0.54600
C579        C  0.88237361  0.03876740  0.23265640     0.08600
C580        C  0.88498592  0.00765996  0.25167764     0.19600
C581        C  0.92720523  0.99312022  0.22074520    -0.55300
C582        C  0.91800100  0.99719536  0.25036000     0.08700
C583        C  0.87610266  0.97748949  0.20207760    -0.54800
C584        C  0.86704301  0.98208263  0.23163187     0.09300
H585        H  0.89068212  0.05539294  0.18746428     0.13800
H586        H  0.87752828  0.01125964  0.27578236    -0.00500
H587        H  0.95062202  0.98936949  0.21632584     0.14100
H588        H  0.86570103  0.95990358  0.18512771     0.13900
C589        C  0.04524956  0.23706524  0.30331234     0.85700
C590        C  0.04306194  0.20949015  0.32670379    -0.54600
C591        C  0.01997971  0.21324648  0.34562039     0.08600
C592        C  0.00206409  0.24576786  0.34119035     0.19600
C593        C  0.01366315  0.24006973  0.28649200    -0.55300
C594        C  0.99093562  0.24471651  0.30601774     0.08700
C595        C  0.04845456  0.26816355  0.32494427    -0.54800
C596        C  0.02615880  0.27288216  0.34478564     0.09300
H597        H  0.05889770  0.18928787  0.32988084     0.13800
H598        H  0.98384998  0.24925227  0.35732315    -0.00500
H599        H  0.00963699  0.23713746  0.26122402     0.14100
H600        H  0.06692204  0.28517579  0.32463374     0.13900
Zr601      Zr  0.27839440  0.31437367  0.17983959     2.17500
O602        O  0.30490343  0.36602244  0.19053892    -0.52100
O603        O  0.27183186  0.32261988  0.12315044    -0.75300
O604        O  0.33254320  0.30876336  0.17261517    -0.82100
O605        O  0.20124775  0.35147008  0.18956407    -0.83900
O606        O  0.34552670  0.25511906  0.18095736    -0.79500
O607        O  0.24914468  0.36610855  0.18282177    -0.91100
O608        O  0.24888230  0.27837464  0.09852032    -0.77100
O609        O  0.28439051  0.26030692  0.15765925    -0.86600
O610        O  0.22995485  0.29576503  0.16069136    -0.86300
O611        O  0.29926943  0.28164680  0.22268323    -0.73000
O612        O  0.24943443  0.31428280  0.22514743    -0.85200
Zr613      Zr  0.22534394  0.20922263  0.22596915     2.26400
Zr614      Zr  0.30355634  0.22733052  0.19996017     2.06300
Zr615      Zr  0.20116286  0.29551241  0.20530965     2.10000
Zr616      Zr  0.23604299  0.24159582  0.13913213     1.78800
O617        O  0.18440311  0.33144270  0.24739150    -0.94000
O618        O  0.26801644  0.20779335  0.10679175    -0.41800
O619        O  0.20512647  0.24123553  0.18282175    -0.78400
O620        O  0.25523581  0.20753066  0.18108800    -0.97100
O621        O  0.27426538  0.22683637  0.24414748    -0.90400
O622        O  0.22038778  0.26320120  0.24810700    -0.93200
C623        C  0.26086817  0.30685315  0.09840053     1.00500
C624        C  0.22105626  0.37266797  0.18491044     1.13400
C625        C  0.35153049  0.28446012  0.17348991     1.04200
O626        O  0.31840804  0.18930788  0.15855928    -0.95400
O627        O  0.30374099  0.17414958  0.22305621    -0.91100
O628        O  0.25648336  0.16015359  0.23364780    -0.84300
C629        C  0.28474170  0.15435523  0.23282552     1.10900
O630        O  0.29740482  0.32793420  0.28706612    -0.97400
Zr631      Zr  0.26921322  0.27995822  0.26706630     1.88900
O632        O  0.23140401  0.19789779  0.28178671    -0.74000
O633        O  0.34947448  0.21875387  0.23341517    -0.53300
O634        O  0.31698642  0.26661654  0.29536444    -0.98000
O635        O  0.23999415  0.31428380  0.30178099    -0.55200
O636        O  0.25883401  0.23899069  0.30635245    -0.74500
C637        C  0.24506322  0.21126645  0.30640151     0.97800
O638        O  0.19669256  0.16092590  0.20755662    -0.63400
O639        O  0.15652710  0.30409781  0.16998574    -0.58200
O640        O  0.17244367  0.21692908  0.23807067    -0.94800
O641        O  0.15865689  0.26830711  0.22301214    -0.93300
O642        O  0.18812248  0.25332001  0.11033396    -0.93600
O643        O  0.21140199  0.19216091  0.11708628    -0.92400
C644        C  0.15299283  0.24076889  0.23472387     1.16600
H645        H  0.22052580  0.31024574  0.14521211     0.32600
H646        H  0.25705696  0.18506923  0.17324435     0.43400
H647        H  0.20709167  0.26369320  0.26487217     0.37000
H648        H  0.31888791  0.28963421  0.22984212     0.33400
H649        H  0.25886952  0.20977000  0.08511430     0.25200
H650        H  0.36425723  0.20916071  0.21945265     0.31200
H651        H  0.31851451  0.24223001  0.29419777     0.37100
H652        H  0.19318683  0.26185768  0.08998443     0.31500
H653        H  0.14827968  0.32589769  0.17633916     0.30400
H654        H  0.16563866  0.34192941  0.23847475     0.32100
H655        H  0.25250860  0.31574563  0.32185707     0.31100
H656        H  0.20454072  0.18098010  0.13545551     0.35100
H657        H  0.17960391  0.16981114  0.19413874     0.27800
H658        H  0.31468298  0.37049989  0.17112007     0.32000
H659        H  0.29909460  0.34150676  0.26844726     0.34900
H660        H  0.16419167  0.30758724  0.14924523     0.27500
H661        H  0.20936882  0.14926733  0.19259770     0.40400
H662        H  0.33865073  0.18127995  0.16602860     0.30400
H663        H  0.28702001  0.21998767  0.10693284     0.38000
H664        H  0.22287408  0.30060760  0.30648350     0.29900
H665        H  0.35696469  0.24105263  0.23946120     0.30000
H666        H  0.32155254  0.36090815  0.20631725     0.30200
C667        C  0.28086499  0.42738772  0.95868506     0.85700
C668        C  0.28232867  0.40418399  0.92965281    -0.54600
C669        C  0.26124221  0.38026826  0.92664102     0.08600
C670        C  0.23984336  0.38138167  0.95386652     0.19600
C671        C  0.24823735  0.44071283  0.95715748    -0.55300
C672        C  0.22628097  0.41707392  0.95484272     0.08700
C673        C  0.28289363  0.40325559  0.98579681    -0.54800
C674        C  0.26116318  0.37996293  0.98413836     0.09300
H675        H  0.29928417  0.40549280  0.91291080     0.13800
H676        H  0.22304855  0.36154583  0.95150080    -0.00500
H677        H  0.24309752  0.46694210  0.95863117     0.14100
H678        H  0.29980981  0.40462065  0.00532624     0.13900
C679        C  0.38575714  0.99348245  0.26621052     0.85700
C680        C  0.36594260  0.96545202  0.25271733    -0.54600
C681        C  0.34703877  0.97422806  0.22783755     0.08600
C682        C  0.35001861  0.01006038  0.21798864     0.19600
C683        C  0.40212662  0.00395466  0.23779112    -0.55300
C684        C  0.38356689  0.01362281  0.21287268     0.08700
C685        C  0.36424238  0.02233686  0.27272014    -0.54800
C686        C  0.34538237  0.03089794  0.24774467     0.09300
H687        H  0.36609324  0.94103880  0.26248987     0.13800
H688        H  0.33470363  0.01706162  0.19762281    -0.00500
H689        H  0.42591083  0.00104942  0.23564065     0.14100
H690        H  0.36446587  0.03543563  0.29528852     0.13900
Zr691      Zr  0.97016524  0.98046995  0.52820151     2.17500
O692        O  0.93912871  0.99995867  0.56972198    -0.52100
O693        O  0.97261872  0.92311648  0.54281570    -0.75300
O694        O  0.91744748  0.96523124  0.51723094    -0.82100
O695        O  0.04298153  0.00389488  0.57318515    -0.83900
O696        O  0.90512081  0.97046983  0.46505548    -0.79500
O697        O  0.99529971  0.98752844  0.57987768    -0.91100
O698        O  0.00340002  0.89464056  0.51179114    -0.77100
O699        O  0.96777614  0.95040690  0.47971022    -0.86600
O700        O  0.02032685  0.96221241  0.52079994    -0.86300
O701        O  0.95097593  0.02001765  0.49105644    -0.73000
O702        O  0.00076432  0.02872922  0.52817575    -0.85200
Zr703      Zr  0.02951365  0.01975541  0.43277235     2.26400
Zr704      Zr  0.94989750  0.98980359  0.44213979     2.06300
Zr705      Zr  0.05061882  0.01013196  0.51868674     2.10000
Zr706      Zr  0.01774051  0.93237151  0.47234387     1.78800
O707        O  0.06973253  0.05840550  0.54857847    -0.94000
O708        O  0.98979321  0.88988891  0.44165118    -0.41800
O709        O  0.04872248  0.98001028  0.46984978    -0.78400
O710        O  0.99983425  0.97063238  0.43328291    -0.97100
O711        O  0.97962375  0.03817437  0.44098392    -0.90400
O712        O  0.03213754  0.04941867  0.48154459    -0.93200
C713        C  0.98654295  0.89665571  0.53482414     1.00500
C714        C  0.02182013  0.99606207  0.58998308     1.13400
C715        C  0.89878878  0.96335707  0.49285310     1.04200
O716        O  0.92977803  0.94433000  0.40895391    -0.95400
O717        O  0.95671245  0.99771992  0.38762144    -0.91100
O718        O  0.00419502  0.01445231  0.38088576    -0.84300
C719        C  0.97761164  0.00617163  0.37076033     1.10900
O720        O  0.95559496  0.09198201  0.53268851    -0.97400
Zr721      Zr  0.98240294  0.06740466  0.49008256     1.88900
O722        O  0.02362238  0.07683978  0.41680888    -0.74000
O723        O  0.90933077  0.02758063  0.42512626    -0.53300
O724        O  0.93497057  0.09373753  0.47265816    -0.98000
O725        O  0.01019015  0.10948711  0.52149437    -0.55200
O726        O  0.99593033  0.10566436  0.45110973    -0.74500
C727        C  0.01071866  0.10342376  0.42655652     0.97800
O728        O  0.06346716  0.99871711  0.39439626    -0.63400
O729        O  0.09218859  0.97456415  0.53757718    -0.58200
O730        O  0.08156523  0.03741723  0.44334478    -0.94800
O731        O  0.09574068  0.02622227  0.49415182    -0.93300
O732        O  0.06566685  0.90989147  0.49354424    -0.93600
O733        O  0.04535478  0.90402468  0.43231093    -0.92400
C734        C  0.10115468  0.03630257  0.46695807     1.16600
H735        H  0.02814186  0.94847869  0.53761374     0.32600
H736        H  0.99983219  0.95914271  0.41315916     0.43400
H737        H  0.04540445  0.06794536  0.48140671     0.37000
H738        H  0.93094557  0.02704429  0.49559130     0.33400
H739        H  0.98091670  0.87607453  0.45712700     0.25200
H740        H  0.89653850  0.01459785  0.40954963     0.31200
H741        H  0.93238824  0.08840781  0.44989106     0.37100
H742        H  0.06100914  0.88806394  0.50153162     0.31500
H743        H  0.08275920  0.95613692  0.54763627     0.30400
H744        H  0.09183517  0.05668643  0.54844353     0.32100
H745        H  0.02745248  0.11481141  0.50947060     0.31100
H746        H  0.05896856  0.92090065  0.42540423     0.35100
H747        H  0.07923806  0.98622977  0.40674851     0.27800
H748        H  0.92950213  0.98001781  0.57689559     0.32000
H749        H  0.95087676  0.07309825  0.54549895     0.34900
H750        H  0.09993822  0.96444595  0.51837130     0.27500
H751        H  0.05225749  0.98134786  0.38195820     0.40400
H752        H  0.90907214  0.95141093  0.40211713     0.30400
H753        H  0.97243138  0.90175833  0.43130086     0.38000
H754        H  0.01919081  0.09775743  0.53994287     0.29900
H755        H  0.89707667  0.03067029  0.44336422     0.30000
H756        H  0.92258475  0.01294078  0.55912013     0.30200
Zr757      Zr  0.03619378  0.04147474  0.95659628     2.17500
O758        O  0.07774621  0.07566637  0.97740486    -0.52100
O759        O  0.04879017  0.03782308  0.90400949    -0.75300
O760        O  0.08256549  0.00775162  0.96053870    -0.82100
O761        O  0.98259593  0.11360453  0.93940760    -0.83900
O762        O  0.07014428  0.95569314  0.97254122    -0.79500
O763        O  0.03110218  0.09734127  0.93581681    -0.91100
O764        O  0.01007597  0.01318520  0.87521313    -0.77100
O765        O  0.02264089  0.98711920  0.93863330    -0.86600
O766        O  0.98900310  0.04481410  0.92677326    -0.86300
O767        O  0.03392334  0.01052135  0.00296685    -0.73000
O768        O  0.00232368  0.06768414  0.99066491    -0.85200
Zr769      Zr  0.93767990  0.98475864  0.99165883     2.26400
Zr770      Zr  0.01838089  0.95657803  0.98441695     2.06300
Zr771      Zr  0.95485642  0.06928016  0.96071770     2.10000
Zr772      Zr  0.97533784  0.99068517  0.90991815     1.78800
O773        O  0.94354561  0.11900910  0.99123671    -0.94000
O774        O  0.99694257  0.94229578  0.88432239    -0.41800
O775        O  0.94022777  0.01454112  0.94421305    -0.78400
O776        O  0.97057868  0.95892392  0.95571625    -0.97100
O777        O  0.98559842  0.98151540  0.01973046    -0.90400
O778        O  0.95159683  0.03970239  0.00757314    -0.93200
C779        C  0.03503417  0.02864701  0.87819135     1.00500
C780        C  0.00929514  0.11829301  0.93122699     1.13400
C781        C  0.08901697  0.97715974  0.96562718     1.04200
O782        O  0.01782161  0.90778200  0.94975406    -0.95400
O783        O  0.99354385  0.91775325  0.01463085    -0.91100
O784        O  0.94446547  0.93162545  0.01816769    -0.84300
C785        C  0.96770540  0.91303695  0.02460081     1.10900
O786        O  0.03776446  0.07431990  0.05602768    -0.97400
Zr787      Zr  0.99905537  0.03589150  0.03625978     1.88900
O788        O  0.92591989  0.99270144  0.04540118    -0.74000
O789        O  0.05449748  0.93119149  0.02229714    -0.53300
O790        O  0.03325386  0.01496911  0.07826973    -0.98000
O791        O  0.97427451  0.08298288  0.06063218    -0.55200
O792        O  0.96833075  0.01126883  0.07268903    -0.74500
C793        C  0.94175226  0.99985932  0.07078925     0.97800
O794        O  0.89756605  0.94840881  0.97117454    -0.63400
O795        O  0.92681232  0.08710015  0.91296796    -0.58200
O796        O  0.89003297  0.01598508  0.98499985    -0.94800
O797        O  0.90167155  0.06618731  0.96781604    -0.93300
O798        O  0.94113115  0.01649710  0.87064313    -0.93600
O799        O  0.93772078  0.95374231  0.88491930    -0.92400
C800        C  0.88272489  0.04536879  0.97610163     1.16600
H801        H  0.98985591  0.05837460  0.90871865     0.32600
H802        H  0.96376662  0.93698117  0.94983995     0.43400
H803        H  0.93689810  0.04993400  0.02034479     0.37000
H804        H  0.05346297  0.00923520  0.01415365     0.33400
H805        H  0.99499383  0.94706119  0.86168668     0.25200
H806        H  0.04743882  0.93747663  0.04307360     0.31200
H807        H  0.03549770  0.99115394  0.07303661     0.37100
H808        H  0.94815058  0.00857943  0.85028602     0.31500
H809        H  0.92723999  0.11150010  0.91420567     0.30400
H810        H  0.93079005  0.11158296  0.00752933     0.32100
H811        H  0.98030505  0.10228463  0.04909612     0.31100
H812        H  0.92719411  0.94510305  0.90242674     0.35100
H813        H  0.88993685  0.95818258  0.95113655     0.27800
H814        H  0.09179774  0.07529934  0.96056188     0.32000
H815        H  0.05455375  0.06994489  0.04257056     0.34900
H816        H  0.93957873  0.08091395  0.89572944     0.27500
H817        H  0.90790218  0.92778972  0.96473181     0.40400
H818        H  0.03630416  0.89533402  0.95651762     0.30400
H819        H  0.01876320  0.94336387  0.89016318     0.38000
H820        H  0.98471408  0.08564801  0.08177475     0.29900
H821        H  0.05116920  0.90714165  0.01992462     0.30000
H822        H  0.08819263  0.06282802  0.99437312     0.30200
Zr823      Zr  0.54718237  0.02080783  0.52360664     2.17500
O824        O  0.58956027  0.05629679  0.51711330    -0.52100
O825        O  0.55744393  0.01126345  0.57914686    -0.75300
O826        O  0.53755455  0.07737867  0.54536337    -0.82100
O827        O  0.58700280  0.94455676  0.48781353    -0.83900
O828        O  0.48827419  0.09109776  0.53490208    -0.79500
O829        O  0.59616189  0.99087458  0.51808125    -0.91100
O830        O  0.52307639  0.97532750  0.59432824    -0.77100
O831        O  0.49903449  0.01980184  0.54436712    -0.86600
O832        O  0.53510057  0.96439894  0.53016725    -0.86300
O833        O  0.51205345  0.04742277  0.48651257    -0.73000
O834        O  0.54568476  0.99551854  0.47201543    -0.85200
Zr835      Zr  0.44955287  0.96401034  0.46313672     2.26400
Zr836      Zr  0.46374238  0.04524675  0.50743248     2.06300
Zr837      Zr  0.53277872  0.93928569  0.47895945     2.10000
Zr838      Zr  0.48704900  0.96370247  0.55072677     1.78800
O839        O  0.56010521  0.91609150  0.43608069    -0.94000
O840        O  0.45937607  0.98852825  0.59272391    -0.41800
O841        O  0.48452684  0.93686999  0.49992439    -0.78400
O842        O  0.45073752  0.98921196  0.51466960    -0.97100
O843        O  0.46168950  0.02026579  0.45631133    -0.90400
O844        O  0.49777870  0.96508614  0.44224425    -0.93200
C845        C  0.54590915  0.99379026  0.59953401     1.00500
C846        C  0.60506027  0.96423196  0.50359411     1.13400
C847        C  0.51474893  0.09743527  0.54673878     1.04200
O848        O  0.43650722  0.05843918  0.55352264    -0.95400
O849        O  0.41037141  0.04355968  0.49105703    -0.91100
O850        O  0.40075112  0.99562254  0.46353552    -0.84300
C851        C  0.39220530  0.02373671  0.47561802     1.10900
O852        O  0.54601760  0.06134005  0.42257275    -0.97400
Zr853      Zr  0.50965104  0.02096984  0.43573529     1.88900
O854        O  0.43875520  0.97314450  0.40860774    -0.74000
O855        O  0.45016505  0.09552115  0.47960361    -0.53300
O856        O  0.49013048  0.07303040  0.41502297    -0.98000
O857        O  0.54479254  0.99878665  0.39927477    -0.55200
O858        O  0.47562520  0.00421307  0.39166448    -0.74500
C859        C  0.45157956  0.98747446  0.38714769     0.97800
O860        O  0.40979840  0.92604006  0.47262571    -0.63400
O861        O  0.54628092  0.89289423  0.51221446    -0.58200
O862        O  0.45847973  0.91004423  0.43627436    -0.94800
O863        O  0.50720899  0.89508591  0.44895158    -0.93300
O864        O  0.50186394  0.90806760  0.56595645    -0.93600
O865        O  0.44544840  0.93143810  0.56626630    -0.92400
C866        C  0.48125371  0.89003686  0.43486124     1.16600
H867        H  0.55021352  0.95345429  0.54373116     0.32600
H868        H  0.43114116  0.98838937  0.52273641     0.43400
H869        H  0.49774068  0.95337124  0.42225606     0.37000
H870        H  0.51768040  0.07007215  0.48436822     0.33400
H871        H  0.46516111  0.97525007  0.61132869     0.25200
H872        H  0.44145928  0.11045860  0.49539521     0.31200
H873        H  0.48300532  0.06793078  0.39295848     0.37100
H874        H  0.52212663  0.91029131  0.57675813     0.31500
H875        H  0.52834553  0.87880333  0.51044653     0.30400
H876        H  0.56856445  0.93531347  0.42632734     0.32100
H877        H  0.53784907  0.97618994  0.39366871     0.31100
H878        H  0.42931608  0.93434796  0.54938555     0.35100
H879        H  0.42014681  0.90818985  0.48470296     0.27800
H880        H  0.59470185  0.06648438  0.53811675     0.32000
H881        H  0.56314359  0.05845957  0.43836243     0.34900
H882        H  0.56140932  0.88020746  0.50084394     0.27500
H883        H  0.39764166  0.93776136  0.48801677     0.40400
H884        H  0.45211302  0.06093007  0.57106611     0.30400
H885        H  0.46896048  0.01007167  0.59762804     0.38000
H886        H  0.56388850  0.99553562  0.41217275     0.29900
H887        H  0.46946859  0.10564049  0.47565645     0.30000
H888        H  0.58111728  0.07459974  0.50424630     0.30200
C889        C  0.24679865  0.13134554  0.42125528     0.85700
C890        C  0.21936292  0.10898160  0.42039177    -0.54600
C891        C  0.21795578  0.08956099  0.44585093     0.08600
C892        C  0.24586766  0.09263489  0.46955868     0.19600
C893        C  0.24616061  0.14968769  0.45372994    -0.55300
C894        C  0.24563054  0.12968159  0.47898125     0.08700
C895        C  0.27400490  0.10775921  0.42533412    -0.54800
C896        C  0.27399880  0.08715161  0.45008698     0.09300
H897        H  0.20092438  0.11087022  0.40245888     0.13800
H898        H  0.24542298  0.07629891  0.48987251    -0.00500
H899        H  0.24493240  0.17613760  0.45726039     0.14100
H900        H  0.29247872  0.10815724  0.41024817     0.13900
Zr901      Zr  0.52988140  0.99048421  0.97157250     2.17500
O902        O  0.57116812  0.95266653  0.98616273    -0.52100
O903        O  0.53878934  0.00192791  0.91788412    -0.75300
O904        O  0.52082940  0.93651413  0.94446658    -0.82100
O905        O  0.57052884  0.06575571  0.00667333    -0.83900
O906        O  0.47276653  0.92305786  0.95182775    -0.79500
O907        O  0.57873720  0.01838748  0.97848632    -0.91100
O908        O  0.50261396  0.03682232  0.89732297    -0.77100
O909        O  0.48149916  0.99343353  0.94450507    -0.86600
O910        O  0.51757061  0.04716553  0.96364365    -0.86300
O911        O  0.49663205  0.96538276  0.00540416    -0.73000
O912        O  0.52981550  0.01530493  0.02343177    -0.85200
Zr913      Zr  0.43391670  0.05247944  0.01948260     2.26400
Zr914      Zr  0.44840738  0.96907058  0.97777116     2.06300
Zr915      Zr  0.51748894  0.07178469  0.01460653     2.10000
Zr916      Zr  0.46904541  0.04997748  0.93693026     1.78800
O917        O  0.54378902  0.08322093  0.06557948    -0.94000
O918        O  0.43814845  0.02508687  0.89335486    -0.41800
O919        O  0.46882519  0.07687596  0.98727618    -0.78400
O920        O  0.43459835  0.02574684  0.96864509    -0.97100
O921        O  0.44582561  0.99551538  0.02819365    -0.90400
O922        O  0.48239453  0.04926092  0.04713649    -0.93200
C923        C  0.52635287  0.01916621  0.89566506     1.00500
C924        C  0.58776960  0.04535950  0.99274355     1.13400
C925        C  0.49827550  0.91694836  0.94084000     1.04200
O926        O  0.42099819  0.94647791  0.93085942    -0.95400
O927        O  0.39527232  0.97617892  0.97930438    -0.91100
O928        O  0.38524705  0.02339754  0.00712408    -0.84300
C929        C  0.37710558  0.99684627  0.99121790     1.10900
O930        O  0.53196933  0.95368744  0.07624471    -0.97400
Zr931      Zr  0.49388657  0.99281661  0.05576312     1.88900
O932        O  0.42222775  0.04292698  0.07253581    -0.74000
O933        O  0.43645192  0.92365472  0.01045087    -0.53300
O934        O  0.47257827  0.94084755  0.06974309    -0.98000
O935        O  0.52616749  0.01404282  0.10011749    -0.55200
O936        O  0.45952981  0.01029800  0.09471245    -0.74500
C937        C  0.43508411  0.02726496  0.09550029     0.97800
O938        O  0.39365868  0.09213725  0.00591071    -0.63400
O939        O  0.53532888  0.12039332  0.99002576    -0.58200
O940        O  0.44436860  0.10903787  0.04237103    -0.94800
O941        O  0.49329502  0.11963473  0.03571397    -0.93300
O942        O  0.48466741  0.10436992  0.92254744    -0.93600
O943        O  0.42791878  0.08606383  0.91807988    -0.92400
C944        C  0.46761324  0.12795325  0.04490568     1.16600
H945        H  0.53220635  0.05778480  0.95193196     0.32600
H946        H  0.41507703  0.02758790  0.95748436     0.43400
H947        H  0.48255797  0.06158993  0.06679440     0.37000
H948        H  0.50234232  0.94255535  0.00831902     0.33400
H949        H  0.44853568  0.00402566  0.88839645     0.25200
H950        H  0.41587896  0.92854115  0.01657167     0.31200
H951        H  0.45169436  0.94640500  0.07441263     0.37100
H952        H  0.50313150  0.10046701  0.91148633     0.31500
H953        H  0.51697829  0.13178728  0.98119919     0.30400
H954        H  0.55040153  0.10631752  0.06471494     0.32100
H955        H  0.51785330  0.00513411  0.11888738     0.31100
H956        H  0.41376849  0.08628574  0.93481655     0.35100
H957        H  0.40347832  0.10979375  0.99511675     0.27800
H958        H  0.57888400  0.94496176  0.96606031     0.32000
H959        H  0.52609110  0.94791236  0.09724482     0.34900
H960        H  0.54312083  0.13498985  0.00765035     0.27500
H961        H  0.38067495  0.08131560  0.98899552     0.40400
H962        H  0.41265727  0.92552115  0.93738494     0.30400
H963        H  0.41959349  0.01824952  0.90244525     0.38000
H964        H  0.52156099  0.03795541  0.10154736     0.29900
H965        H  0.43422184  0.90430386  0.99584045     0.30000
H966        H  0.56155331  0.93312536  0.99415651     0.30200
C967        C  0.53084554  0.26689918  0.16381319     0.85700
C968        C  0.53854114  0.29415565  0.14175075    -0.54600
C969        C  0.51637350  0.30256444  0.11966936     0.08600
C970        C  0.48863264  0.28032725  0.11992540     0.19600
C971        C  0.50027789  0.27760165  0.17632956    -0.55300
C972        C  0.47808834  0.28444767  0.15320237     0.08700
C973        C  0.52218615  0.23739247  0.14111344    -0.54800
C974        C  0.50015224  0.24436949  0.11829635     0.09300
H975        H  0.56050629  0.30517796  0.14333496     0.13800
H976        H  0.47059235  0.28579811  0.10151834    -0.00500
H977        H  0.49602988  0.27700213  0.20094652     0.14100
H978        H  0.53105514  0.21252418  0.14305664     0.13900
Zr979      Zr  0.45149171  0.55008631  0.95864257     2.17500
O980        O  0.41008100  0.58813475  0.96762240    -0.52100
O981        O  0.44078020  0.53658354  0.90342024    -0.75300
O982        O  0.46101993  0.60365619  0.93559424    -0.82100
O983        O  0.40913831  0.47823801  0.98846046    -0.83900
O984        O  0.51015180  0.61468673  0.94776616    -0.79500
O985        O  0.40216605  0.52386533  0.95885661    -0.91100
O986        O  0.47525149  0.49816196  0.88885112    -0.77100
O987        O  0.49996332  0.54532174  0.93885324    -0.86600
O988        O  0.46235491  0.49256902  0.95206445    -0.86300
O989        O  0.48511945  0.57674144  0.99778820    -0.73000
O990        O  0.45093371  0.52705143  0.00975937    -0.85200
Zr991      Zr  0.54561436  0.49030763  0.01944846     2.26400
Zr992      Zr  0.53357343  0.57091296  0.97812904     2.06300
Zr993      Zr  0.46237366  0.46981026  0.00256661     2.10000
Zr994      Zr  0.51049429  0.48783076  0.93225444     1.78800
O995        O  0.43551703  0.45923556  0.04857883    -0.94000
O996        O  0.54259561  0.50751668  0.89336265    -0.41800
O997        O  0.51075595  0.46321887  0.98216279    -0.78400
O998        O  0.54544184  0.51378238  0.96881536    -0.97100
O999        O  0.53483894  0.54757086  0.02842982    -0.90400
O1000       O  0.49762463  0.49461448  0.04052294    -0.93200
C1001       C  0.45202058  0.51642323  0.88363403     1.00500
C1002       C  0.39248867  0.49820347  0.97184389     1.13400
C1003       C  0.48424040  0.62200114  0.93477460     1.04200
O1004       O  0.56465562  0.59998959  0.94400320    -0.95400
O1005       O  0.58712598  0.56050461  0.98565819    -0.91100
O1006       O  0.59546705  0.51302307  0.01214421    -0.84300
C1007       C  0.60461101  0.53837363  0.99822278     1.10900
O1008       O  0.44265472  0.58554218  0.05901185    -0.97400
Zr1009     Zr  0.48634031  0.55164875  0.04796622     1.88900
O1010       O  0.55825757  0.50528025  0.07351606    -0.74000
O1011       O  0.54279347  0.61432651  0.01810326    -0.53300
O1012       O  0.49826705  0.60706056  0.06802441    -0.98000
O1013       O  0.45811195  0.52983635  0.08925641    -0.55200
O1014       O  0.52490733  0.54365623  0.09015805    -0.74500
C1015       C  0.54839245  0.52521592  0.09425592     0.97800
O1016       O  0.58838159  0.45261490  0.01577629    -0.63400
O1017       O  0.44494560  0.42034560  0.97336533    -0.58200
O1018       O  0.53541268  0.43590803  0.03983011    -0.94800
O1019       O  0.48652232  0.42287753  0.02763487    -0.93300
O1020       O  0.49419715  0.43371486  0.91227379    -0.93600
O1021       O  0.55193698  0.44982404  0.92323433    -0.92400
C1022       C  0.51289888  0.41643488  0.03995375     1.16600
H1023       H  0.44740217  0.48182906  0.93805997     0.32600
H1024       H  0.56452357  0.51065648  0.95995361     0.43400
H1025       H  0.49812707  0.48332715  0.06007849     0.37000
H1026       H  0.47961280  0.59980112  0.00006110     0.33400
H1027       H  0.52943321  0.50969995  0.87385900     0.25200
H1028       H  0.56260804  0.62308909  0.01400991     0.31200
H1029       H  0.49408765  0.60694445  0.09043424     0.37100
H1030       H  0.49696518  0.43380327  0.88952529     0.31500
H1031       H  0.43005876  0.42810903  0.95679840     0.30400
H1032       H  0.42365895  0.43931376  0.04266430     0.32100
H1033       H  0.46609058  0.54150101  0.10870389     0.31100
H1034       H  0.55815528  0.44128437  0.94420765     0.35100
H1035       H  0.59371768  0.44562483  0.03748863     0.27800
H1036       H  0.40162280  0.59391934  0.94641516     0.32000
H1037       H  0.43453584  0.59311103  0.03823506     0.34900
H1038       H  0.46231704  0.41274425  0.96187012     0.27500
H1039       H  0.58034933  0.43264193  0.00444165     0.40400
H1040       H  0.56002958  0.58979268  0.92290318     0.30400
H1041       H  0.54728386  0.53049404  0.90024978     0.38000
H1042       H  0.46488928  0.50669802  0.09196808     0.29900
H1043       H  0.52836570  0.63220458  0.01198939     0.30000
H1044       H  0.41957410  0.60852769  0.97660167     0.30200
Zr1045     Zr  0.06069802  0.46580125  0.45425805     2.17500
O1046       O  0.10305186  0.42923492  0.46824921    -0.52100
O1047       O  0.07138708  0.47032530  0.40044295    -0.75300
O1048       O  0.04951805  0.41052767  0.42925307    -0.82100
O1049       O  0.09666984  0.55051178  0.47545640    -0.83900
O1050       O  0.00008870  0.39998283  0.43325042    -0.79500
O1051       O  0.10826507  0.49757573  0.46063443    -0.91100
O1052       O  0.03191956  0.49780981  0.37618329    -0.77100
O1053       O  0.01142806  0.46387264  0.42885221    -0.86600
O1054       O  0.04629200  0.52084004  0.44066541    -0.86300
O1055       O  0.02918611  0.44281871  0.49121083    -0.73000
O1056       O  0.06094433  0.49766502  0.50254555    -0.85200
Zr1057     Zr  0.96527493  0.52866458  0.49978483     2.26400
Zr1058     Zr  0.97946623  0.44299611  0.46565931     2.06300
Zr1059     Zr  0.04512242  0.55259719  0.48853746     2.10000
Zr1060     Zr  0.99771496  0.51821011  0.41467426     1.78800
O1061       O  0.08282660  0.57480258  0.52711361    -0.94000
O1062       O  0.96486530  0.48925183  0.37534881    -0.41800
O1063       O  0.99606490  0.55139435  0.46223082    -0.78400
O1064       O  0.96459022  0.49761430  0.45093636    -0.97100
O1065       O  0.97947150  0.47384180  0.51372133    -0.90400
O1066       O  0.01442822  0.53023542  0.52550341    -0.93200
C1067       C  0.05713157  0.48201500  0.37611846     1.00500
C1068       C  0.11526091  0.52805570  0.46731454     1.13400
C1069       C  0.02575072  0.39289376  0.42316610     1.04200
O1070       O  0.94229209  0.41932472  0.42736661    -0.95400
O1071       O  0.92725157  0.44766733  0.47748818    -0.91100
O1072       O  0.91758026  0.49893938  0.49724610    -0.84300
C1073       C  0.90937452  0.46959177  0.48836887     1.10900
O1074       O  0.06933076  0.43961432  0.55902769    -0.97400
Zr1075     Zr  0.02873443  0.47575915  0.53877987     1.88900
O1076       O  0.95633303  0.52330620  0.55425113    -0.74000
O1077       O  0.97768242  0.39632442  0.49987395    -0.53300
O1078       O  0.01108864  0.42731382  0.56386005    -0.98000
O1079       O  0.06380902  0.50448682  0.57621386    -0.55200
O1080       O  0.99629837  0.49634403  0.57811994    -0.74500
C1081       C  0.97106658  0.51185421  0.57847158     0.97800
O1082       O  0.92292113  0.56367707  0.48198073    -0.63400
O1083       O  0.04455643  0.59935347  0.45407009    -0.58200
O1084       O  0.97337488  0.58445421  0.52301234    -0.94800
O1085       O  0.02245259  0.59672388  0.51945119    -0.93300
O1086       O  0.01430534  0.56882070  0.39266012    -0.93600
O1087       O  0.95662923  0.55194867  0.39177259    -0.92400
C1088       C  0.99628099  0.60323858  0.52886919     1.16600
H1089       H  0.06012048  0.53024675  0.42720505     0.32600
H1090       H  0.94448973  0.49747779  0.44099363     0.43400
H1091       H  0.01518174  0.54345781  0.54468880     0.37000
H1092       H  0.03568511  0.42053392  0.49584844     0.33400
H1093       H  0.96841753  0.49951248  0.35528115     0.25200
H1094       H  0.96675815  0.40491425  0.51777613     0.31200
H1095       H  0.99013311  0.43267225  0.56840982     0.37100
H1096       H  0.01630068  0.56322606  0.37021151     0.31500
H1097       H  0.02944646  0.61503499  0.46194220     0.30400
H1098       H  0.08561406  0.59778881  0.52086812     0.32100
H1099       H  0.05119728  0.51831076  0.58964069     0.31100
H1100       H  0.94704471  0.56186992  0.41002627     0.35100
H1101       H  0.93204059  0.58409471  0.47522214     0.27800
H1102       H  0.10839335  0.41892904  0.44808279     0.32000
H1103       H  0.06786888  0.43965152  0.58202207     0.34900
H1104       H  0.06402193  0.61019799  0.45935656     0.27500
H1105       H  0.91473872  0.55289353  0.46214971     0.40400
H1106       H  0.93887021  0.43638714  0.41137321     0.30400
H1107       H  0.97388203  0.46687695  0.37359220     0.38000
H1108       H  0.07381396  0.52049013  0.56361872     0.29900
H1109       H  0.96345984  0.38099393  0.48840259     0.30000
H1110       H  0.09441577  0.41114203  0.47952472     0.30200
Zr1111     Zr  0.03157541  0.49511767  0.92875839     2.17500
O1112       O  0.05958211  0.51361485  0.88604429    -0.52100
O1113       O  0.02752657  0.43721535  0.91074646    -0.75300
O1114       O  0.08428243  0.47468271  0.93709458    -0.82100
O1115       O  0.95589488  0.52407453  0.89035589    -0.83900
O1116       O  0.09615382  0.47359085  0.98971878    -0.79500
O1117       O  0.00148511  0.50264064  0.87897152    -0.91100
O1118       O  0.99800679  0.41151299  0.94313727    -0.77100
O1119       O  0.03408427  0.46463587  0.97538717    -0.86600
O1120       O  0.98123366  0.48196116  0.93835182    -0.86300
O1121       O  0.05383521  0.53245246  0.96863982    -0.73000
O1122       O  0.00500834  0.54709658  0.93565948    -0.85200
Zr1123     Zr  0.97737088  0.53946933  0.03230431     2.26400
Zr1124     Zr  0.05512832  0.50142652  0.01528730     2.06300
Zr1125     Zr  0.95487348  0.53327665  0.94576990     2.10000
Zr1126     Zr  0.98416409  0.45127351  0.98466793     1.78800
O1127       O  0.94255157  0.58484357  0.91968527    -0.94000
O1128       O  0.01028258  0.40776897  0.01447329    -0.41800
O1129       O  0.95623190  0.50200623  0.99221655    -0.78400
O1130       O  0.00480438  0.48763029  0.02616442    -0.97100
O1131       O  0.02780965  0.55191024  0.02283379    -0.90400
O1132       O  0.97561042  0.56996109  0.98571616    -0.93200
C1133       C  0.01410748  0.41152998  0.91932635     1.00500
C1134       C  0.97459774  0.51303805  0.87130823     1.13400
C1135       C  0.10240324  0.46785107  0.96115764     1.04200
O1136       O  0.07117099  0.45347718  0.04547308    -0.95400
O1137       O  0.05514531  0.51657718  0.06997909    -0.91100
O1138       O  0.00880684  0.53560355  0.08173748    -0.84300
C1139       C  0.03638317  0.52746877  0.08910131     1.10900
O1140       O  0.06037053  0.60434110  0.94121926    -0.97400
Zr1141     Zr  0.02594805  0.58316924  0.97714984     1.88900
O1142       O  0.98218615  0.59721810  0.04994337    -0.74000
O1143       O  0.09972138  0.53415774  0.02894371    -0.53300
O1144       O  0.07050481  0.60280890  0.00799821    -0.98000
O1145       O  0.00289145  0.62860114  0.94749475    -0.55200
O1146       O  0.01078133  0.62355094  0.01714228    -0.74500
C1147       C  0.99533097  0.62306066  0.04136868     0.97800
O1148       O  0.94774281  0.52047029  0.07367479    -0.63400
O1149       O  0.90837407  0.50532242  0.92871245    -0.58200
O1150       O  0.92360227  0.55803600  0.02416629    -0.94800
O1151       O  0.91145277  0.55324149  0.97178466    -0.93300
O1152       O  0.93548764  0.43182099  0.96300619    -0.93600
O1153       O  0.95409850  0.42487641  0.02163788    -0.92400
C1154       C  0.90461800  0.56047066  0.99982150     1.16600
H1155       H  0.97169325  0.46906021  0.92120764     0.32600
H1156       H  0.00544001  0.47624984  0.04572331     0.43400
H1157       H  0.96318640  0.58962131  0.98737737     0.37000
H1158       H  0.07397678  0.53753467  0.96379387     0.33400
H1159       H  0.02932415  0.40405071  0.00438693     0.25200
H1160       H  0.11155618  0.52141341  0.04505518     0.31200
H1161       H  0.08764036  0.59197398  0.99823294     0.37100
H1162       H  0.93954350  0.40974219  0.95359367     0.31500
H1163       H  0.90257281  0.51326328  0.90742644     0.30400
H1164       H  0.92168695  0.59030738  0.92445927     0.32100
H1165       H  0.01413876  0.64836869  0.95533262     0.31100
H1166       H  0.95132405  0.44201415  0.03819914     0.35100
H1167       H  0.93066195  0.50878615  0.06250140     0.27800
H1168       H  0.06827432  0.49322697  0.87686321     0.32000
H1169       H  0.06595663  0.62655427  0.94972189     0.34900
H1170       H  0.91433553  0.48194466  0.92536567     0.27500
H1171       H  0.95996271  0.50264229  0.08383395     0.40400
H1172       H  0.08773509  0.46138556  0.06032532     0.30400
H1173       H  0.01640248  0.41807642  0.03518871     0.38000
H1174       H  0.98284337  0.63191172  0.95556534     0.29900
H1175       H  0.11164725  0.53268236  0.01035414     0.30000
H1176       H  0.07692311  0.52549500  0.89643646     0.30200
C1177       C  0.11386409  0.49320386  0.26004974     0.85700
C1178       C  0.13274513  0.52433225  0.26529378    -0.54600
C1179       C  0.14576632  0.53433938  0.23934978     0.08600
C1180       C  0.13853797  0.51211429  0.20997710     0.19600
C1181       C  0.09136544  0.50219521  0.23254479    -0.55300
C1182       C  0.10399646  0.51090735  0.20620768     0.08700
C1183       C  0.13522054  0.46742565  0.24640012    -0.54800
C1184       C  0.14848427  0.47757028  0.22061355     0.09300
H1185       H  0.13632898  0.53679878  0.28803586     0.13800
H1186       H  0.14898539  0.51989861  0.18868759    -0.00500
H1187       H  0.06722214  0.50273527  0.23311134     0.14100
H1188       H  0.14016996  0.44365777  0.25677586     0.13900
Zr1189     Zr  0.55220126  0.53457172  0.46971081     2.17500
O1190       O  0.58960085  0.57632235  0.48448869    -0.52100
O1191       O  0.56074952  0.52732942  0.41508192    -0.75300
O1192       O  0.60269873  0.50897011  0.47614453    -0.82100
O1193       O  0.48961888  0.59489972  0.44784369    -0.83900
O1194       O  0.59792961  0.46058516  0.50092688    -0.79500
O1195       O  0.53984315  0.58780271  0.44524581    -0.91100
O1196       O  0.52178699  0.49872315  0.39145148    -0.77100
O1197       O  0.54341446  0.47754433  0.45723643    -0.86600
O1198       O  0.50306800  0.53117907  0.44381899    -0.86300
O1199       O  0.55548762  0.50711805  0.51890592    -0.73000
O1200       O  0.51899694  0.55849870  0.50632183    -0.85200
Zr1201     Zr  0.46264522  0.46944755  0.51543262     2.26400
Zr1202     Zr  0.54526202  0.45026686  0.50617461     2.06300
Zr1203     Zr  0.46999836  0.55370618  0.48039749     2.10000
Zr1204     Zr  0.49442663  0.47475293  0.43149869     1.78800
O1205       O  0.46008719  0.59402456  0.52186909    -0.94000
O1206       O  0.51884471  0.42741590  0.40713175    -0.41800
O1207       O  0.45948590  0.49702752  0.46653589    -0.78400
O1208       O  0.49634768  0.44568186  0.47949832    -0.97100
O1209       O  0.51141290  0.47253461  0.54199081    -0.90400
O1210       O  0.47227800  0.52629560  0.52851708    -0.93200
C1211       C  0.54536006  0.51615317  0.39077560     1.00500
C1212       C  0.51481770  0.60317092  0.43829144     1.13400
C1213       C  0.61360654  0.48267560  0.48925576     1.04200
O1214       O  0.55944555  0.40388579  0.47262631    -0.95400
O1215       O  0.52345491  0.40367372  0.53046049    -0.91100
O1216       O  0.47423019  0.41469617  0.53690526    -0.84300
C1217       C  0.49784263  0.39592127  0.53967312     1.10900
O1218       O  0.56447716  0.56233609  0.57186450    -0.97400
Zr1219     Zr  0.52114833  0.52898921  0.55431636     1.88900
O1220       O  0.45223125  0.47862805  0.56907223    -0.74000
O1221       O  0.57568160  0.43108133  0.55193212    -0.53300
O1222       O  0.55153238  0.50008947  0.59480049    -0.98000
O1223       O  0.50828720  0.58170521  0.57921791    -0.55200
O1224       O  0.48517629  0.51586815  0.59130229    -0.74500
C1225       C  0.46222621  0.49737863  0.59183723     0.97800
O1226       O  0.42192160  0.43241358  0.49839694    -0.63400
O1227       O  0.43068705  0.59134676  0.45957655    -0.58200
O1228       O  0.41383318  0.49866341  0.51261118    -0.94800
O1229       O  0.41991711  0.53211954  0.47261360    -0.93300
O1230       O  0.45470200  0.49478272  0.39446408    -0.93600
O1231       O  0.45951327  0.43330968  0.40942941    -0.92400
C1232       C  0.40401870  0.52082431  0.49336861     1.16600
H1233       H  0.50084742  0.54263227  0.42436552     0.32600
H1234       H  0.49168117  0.42277741  0.47504798     0.43400
H1235       H  0.45725463  0.53577228  0.54134360     0.37000
H1236       H  0.57533598  0.50952334  0.52928561     0.33400
H1237       H  0.54037176  0.43299252  0.40807740     0.25200
H1238       H  0.59096625  0.41599456  0.54348859     0.31200
H1239       H  0.54498221  0.50947563  0.61485647     0.37100
H1240       H  0.44926908  0.51694499  0.40283398     0.31500
H1241       H  0.43922617  0.61369848  0.45956840     0.30400
H1242       H  0.47151046  0.61366413  0.51698091     0.32100
H1243       H  0.48633757  0.58118460  0.58085973     0.31100
H1244       H  0.44919962  0.42583295  0.42756923     0.35100
H1245       H  0.43174766  0.41307993  0.48855981     0.27800
H1246       H  0.60464780  0.57381197  0.46869692     0.32000
H1247       H  0.56475362  0.56381359  0.59503025     0.34900
H1248       H  0.42659599  0.58468967  0.43726180     0.27500
H1249       H  0.41474451  0.42416114  0.51800986     0.40400
H1250       H  0.58107855  0.40007142  0.47829208     0.30400
H1251       H  0.51778577  0.40948332  0.42217257     0.38000
H1252       H  0.51105110  0.59830305  0.56322991     0.29900
H1253       H  0.58701602  0.45059638  0.56028363     0.30000
H1254       H  0.60004983  0.56867521  0.50424609     0.30200
C1255       C  0.94717761  0.74970710  0.64698775     0.85700
C1256       C  0.95207746  0.71828718  0.62644632    -0.54600
C1257       C  0.97640463  0.71911193  0.60898094     0.08600
C1258       C  0.99436364  0.75131593  0.61409597     0.19600
C1259       C  0.97695803  0.75427260  0.66681555    -0.55300
C1260       C  0.00153644  0.75513440  0.64989127     0.08700
C1261       C  0.94606533  0.77720505  0.62298975    -0.54800
C1262       C  0.97098746  0.77896086  0.60636975     0.09300
H1263       H  0.93708264  0.69755809  0.62404407     0.13800
H1264       H  0.01464511  0.75204870  0.60070794    -0.00500
H1265       H  0.97851439  0.75612936  0.69227088     0.14100
H1266       H  0.92745194  0.79467200  0.62008815     0.13900
Zr1267     Zr  0.18448030  0.78076397  0.75659977     2.17500
O1268       O  0.14698629  0.76824967  0.79290883    -0.52100
O1269       O  0.17282389  0.83782808  0.74745859    -0.75300
O1270       O  0.19617890  0.80782095  0.80902647    -0.82100
O1271       O  0.14090727  0.74403657  0.68423371    -0.83900
O1272       O  0.24598152  0.79920654  0.82187970    -0.79500
O1273       O  0.13415906  0.77440657  0.72890439    -0.91100
O1274       O  0.20583203  0.85833212  0.71577784    -0.77100
O1275       O  0.23153032  0.80695791  0.75461409    -0.86600
O1276       O  0.19223516  0.78741425  0.70237377    -0.86300
O1277       O  0.22094012  0.74406354  0.78149641    -0.73000
O1278       O  0.18458327  0.72639201  0.73253179    -0.85200
Zr1279     Zr  0.27767181  0.72419822  0.70028696     2.26400
Zr1280     Zr  0.26805926  0.77012319  0.77845654     2.06300
Zr1281     Zr  0.19359290  0.73332389  0.67891736     2.10000
Zr1282     Zr  0.23898514  0.81386730  0.70080018     1.78800
O1283       O  0.17060720  0.67938436  0.67307233    -0.94000
O1284       O  0.27472295  0.85419763  0.72358035    -0.41800
O1285       O  0.24041427  0.76041071  0.67532581    -0.78400
O1286       O  0.27673752  0.77859393  0.72448176    -0.97100
O1287       O  0.26991514  0.71614445  0.75437947    -0.90400
O1288       O  0.23078593  0.69749151  0.70243769    -0.93200
C1289       C  0.18341868  0.86139682  0.73260611     1.00500
C1290       C  0.12423738  0.75903899  0.70338634     1.13400
C1291       C  0.22004632  0.81070946  0.82797176     1.04200
O1292       O  0.29781300  0.81621222  0.80035781    -0.95400
O1293       O  0.32113651  0.76465413  0.77210772    -0.91100
O1294       O  0.32826572  0.73692614  0.72608035    -0.84300
C1295       C  0.33808121  0.75223293  0.75177280     1.10900
O1296       O  0.18218441  0.67631917  0.78840262    -0.97400
Zr1297     Zr  0.22236146  0.69069021  0.75607860     1.88900
O1298       O  0.28858325  0.66642036  0.70984390    -0.74000
O1299       O  0.28263065  0.73507923  0.82245500    -0.53300
O1300       O  0.24288743  0.67537974  0.80802103    -0.98000
O1301       O  0.19173420  0.64427335  0.73630955    -0.55200
O1302       O  0.25605648  0.64630333  0.74236972    -0.74500
C1303       C  0.27818329  0.64299310  0.72517585     0.97800
O1304       O  0.32050249  0.72684124  0.66839474    -0.63400
O1305       O  0.17131210  0.75341018  0.62921105    -0.58200
O1306       O  0.26520684  0.70456548  0.64492596    -0.94800
O1307       O  0.21481268  0.70844939  0.63344881    -0.93300
O1308       O  0.21577620  0.83862589  0.65365844    -0.93600
O1309       O  0.27315166  0.82705312  0.66140067    -0.92400
C1310       C  0.24126566  0.70021662  0.62626756     1.16600
H1311       H  0.17633403  0.80049416  0.69216500     0.32600
H1312       H  0.29558097  0.78942810  0.72276259     0.43400
H1313       H  0.23070448  0.67658736  0.69102185     0.37000
H1314       H  0.21675741  0.74162192  0.80313363     0.33400
H1315       H  0.27217609  0.87336650  0.70980528     0.25200
H1316       H  0.29856675  0.74740896  0.83488253     0.31200
H1317       H  0.24110738  0.65111492  0.80816384     0.37100
H1318       H  0.20349679  0.82088095  0.64312094     0.31500
H1319       H  0.15339400  0.73968011  0.62415268     0.30400
H1320       H  0.15645494  0.68105622  0.65424301     0.32100
H1321       H  0.19832823  0.62573008  0.74983417     0.31100
H1322       H  0.28450260  0.80627304  0.65779029     0.35100
H1323       H  0.32365513  0.70399749  0.66030635     0.27800
H1324       H  0.15863322  0.75978424  0.81165980     0.32000
H1325       H  0.16398826  0.68718533  0.77855550     0.34900
H1326       H  0.16315739  0.77561599  0.63428627     0.27500
H1327       H  0.31336224  0.73948726  0.64978100     0.40400
H1328       H  0.30755518  0.80822374  0.82033295     0.30400
H1329       H  0.26645641  0.86187473  0.74341918     0.38000
H1330       H  0.19902338  0.63804518  0.71562708     0.29900
H1331       H  0.26537404  0.73611139  0.83568973     0.30000
H1332       H  0.13659036  0.74855279  0.78354072     0.30200
C1333       C  0.45599586  0.77088029  0.81602013     0.85700
C1334       C  0.45914484  0.80135092  0.83883275    -0.54600
C1335       C  0.48373074  0.80042376  0.85985209     0.08600
C1336       C  0.50232657  0.76836931  0.85766307     0.19600
C1337       C  0.48667268  0.76748686  0.80172793    -0.55300
C1338       C  0.51092893  0.76617522  0.82343791     0.08700
C1339       C  0.45581345  0.74212302  0.83857247    -0.54800
C1340       C  0.47982739  0.74015840  0.86014384     0.09300
H1341       H  0.44294673  0.82123206  0.84027441     0.13800
H1342       H  0.52169732  0.76787193  0.87542759    -0.00500
H1343       H  0.48892954  0.76651773  0.77662595     0.14100
H1344       H  0.43801063  0.72415019  0.83719983     0.13900
C1345       C  0.37994108  0.78971780  0.76901469    -0.10000
C1346       C  0.37082331  0.75778101  0.75934379     0.06200
C1347       C  0.39232769  0.73209459  0.76168864    -0.03700
C1348       C  0.42071800  0.73787627  0.77740786    -0.08200
C1349       C  0.42846329  0.76908377  0.79140615     0.05300
C1350       C  0.40861853  0.79584394  0.78356877    -0.03200
Br1351     Br  0.41967156  0.84144560  0.78661548    -0.02900
H1352       H  0.36437139  0.81026025  0.76532072     0.09300
H1353       H  0.43616828  0.71716640  0.78049302     0.07300
Br1354     Br  0.38310786  0.68823918  0.74637155    -0.03300
C1355       C  0.07408678  0.78711741  0.69233981    -0.10000
C1356       C  0.09149264  0.75793029  0.69426726     0.06200
C1357       C  0.07825648  0.72800813  0.68300295    -0.03700
C1358       C  0.04921973  0.72789289  0.66842710    -0.08200
C1359       C  0.03237491  0.75707120  0.66523316     0.05300
C1360       C  0.04463040  0.78680479  0.67807119    -0.03200
Br1361     Br  0.02235297  0.82757507  0.67547966    -0.02900
H1362       H  0.08377378  0.81032876  0.70074803     0.09300
H1363       H  0.03955443  0.70472911  0.65988957     0.07300
Br1364     Br  0.09826136  0.68607325  0.68808003    -0.03300
C1365       C  0.04543321  0.49901733  0.13824306    -0.10000
C1366       C  0.04797038  0.52806920  0.12201861     0.06200
C1367       C  0.06855978  0.55210708  0.13387739    -0.03700
C1368       C  0.08683851  0.54635429  0.16134302    -0.08200
C1369       C  0.08505312  0.51660502  0.17691915     0.05300
C1370       C  0.06389633  0.49291031  0.16521300    -0.03200
Br1371     Br  0.06134520  0.45007439  0.18279627    -0.02900
H1372       H  0.03062288  0.47981623  0.12850095     0.09300
H1373       H  0.10263342  0.56491152  0.17035030     0.07300
Br1374     Br  0.07323086  0.59230417  0.11241922    -0.03300
C1375       C  0.96586232  0.65289352  0.54393310    -0.10000
C1376       C  0.99247262  0.63412796  0.54826294     0.06200
C1377       C  0.01473410  0.64517235  0.57143723    -0.03700
C1378       C  0.00981530  0.67381627  0.58981371    -0.08200
C1379       C  0.98285440  0.69185576  0.58603504     0.05300
C1380       C  0.96111181  0.68160000  0.56220436    -0.03200
Br1381     Br  0.92508158  0.70689092  0.55263695    -0.02900
H1382       H  0.94872417  0.64536238  0.52601781     0.09300
H1383       H  0.02665562  0.68121758  0.60805028     0.07300
Br1384     Br  0.05116184  0.62076469  0.58151163    -0.03300
C1385       C  0.06908891  0.47595788  0.28959140    -0.10000
C1386       C  0.10002380  0.48255517  0.28978875     0.06200
C1387       C  0.11731168  0.48066935  0.31883545    -0.03700
C1388       C  0.10298261  0.47931426  0.34669498    -0.08200
C1389       C  0.07158791  0.47820835  0.34630402     0.05300
C1390       C  0.05488323  0.47403851  0.31736927    -0.03200
Br1391     Br  0.01301274  0.46372849  0.31414545    -0.02900
H1392       H  0.05539987  0.47184797  0.26806867     0.09300
H1393       H  0.11647638  0.48029395  0.36881631     0.07300
Br1394     Br  0.16039504  0.48022024  0.32255268    -0.03300
C1395       C  0.50896677  0.66537382  0.90616085    -0.10000
C1396       C  0.48238736  0.65347855  0.91729876     0.06200
C1397       C  0.45579487  0.67237750  0.91180445    -0.03700
C1398       C  0.45624899  0.70161020  0.89520864    -0.08200
C1399       C  0.48250004  0.71247691  0.88264345     0.05300
C1400       C  0.50926834  0.69411662  0.88889201    -0.03200
Br1401     Br  0.54668240  0.70431081  0.87255539    -0.02900
H1402       H  0.52979414  0.65152777  0.90990432     0.09300
H1403       H  0.43550839  0.71560847  0.89138347     0.07300
Br1404     Br  0.41798741  0.66043622  0.92609426    -0.03300
C1405       C  0.50267079  0.32950738  0.06846270    -0.10000
C1406       C  0.51829016  0.33111910  0.09827650     0.06200
C1407       C  0.53383410  0.36070556  0.10718734    -0.03700
C1408       C  0.53353001  0.38684799  0.08659473    -0.08200
C1409       C  0.51684689  0.38555844  0.05761635     0.05300
C1410       C  0.50144505  0.35630990  0.04847202    -0.03200
Br1411     Br  0.47851578  0.35107266  0.00890647    -0.02900
H1412       H  0.49086935  0.30741714  0.06052354     0.09300
H1413       H  0.54477230  0.40945226  0.09433758     0.07300
Br1414     Br  0.55276587  0.37062200  0.14807255    -0.03300
C1415       C  0.50678185  0.85563198  0.87239065    -0.10000
C1416       C  0.49156742  0.82827697  0.88241444     0.06200
C1417       C  0.48237034  0.82885537  0.91313428    -0.03700
C1418       C  0.48666376  0.85717984  0.93254920    -0.08200
C1419       C  0.50049874  0.88537881  0.92213082     0.05300
C1420       C  0.51148236  0.88393462  0.89195387    -0.03200
Br1421     Br  0.53023580  0.92093843  0.87497313    -0.02900
H1422       H  0.51412370  0.85541753  0.84881532     0.09300
H1423       H  0.47808136  0.85762950  0.95558540     0.07300
Br1424     Br  0.46212286  0.79223235  0.92880356    -0.03300
C1425       C  0.46690893  0.19521392  0.10857366    -0.10000
C1426       C  0.48629015  0.21812782  0.09691013     0.06200
C1427       C  0.49435977  0.21375566  0.06594683    -0.03700
C1428       C  0.48452485  0.18603990  0.04789338    -0.08200
C1429       C  0.46702719  0.16157472  0.06022975     0.05300
C1430       C  0.45709562  0.16726473  0.09050089    -0.03200
Br1431     Br  0.43323396  0.13587236  0.10968597    -0.02900
H1432       H  0.46052464  0.19825223  0.13243778     0.09300
H1433       H  0.49273321  0.18218364  0.02483545     0.07300
Br1434     Br  0.52200055  0.24257632  0.04872442    -0.03300
C1435       C  0.34190178  0.02770363  0.44347433    -0.10000
C1436       C  0.35962348  0.03530045  0.47133282     0.06200
C1437       C  0.34637330  0.05648743  0.49383207    -0.03700
C1438       C  0.31784165  0.07124144  0.48730288    -0.08200
C1439       C  0.30119033  0.06549772  0.45864382     0.05300
C1440       C  0.31320420  0.04246340  0.43709460    -0.03200
Br1441     Br  0.29099892  0.02985833  0.39867516    -0.02900
H1442       H  0.35080520  0.01116409  0.42597329     0.09300
H1443       H  0.30911889  0.08844133  0.50438054     0.07300
Br1444     Br  0.36546395  0.06608676  0.53466638    -0.03300
C1445       C  0.99012891  0.83521875  0.54056148    -0.10000
C1446       C  0.98305118  0.86659049  0.55345888     0.06200
C1447       C  0.97293814  0.86834408  0.58409386    -0.03700
C1448       C  0.96965827  0.83953155  0.60039066    -0.08200
C1449       C  0.97612608  0.80828262  0.58736222     0.05300
C1450       C  0.98674825  0.80627477  0.55713011    -0.03200
Br1451     Br  0.99516038  0.76493226  0.53636313    -0.02900
H1452       H  0.99786237  0.83303307  0.51717834     0.09300
H1453       H  0.96221373  0.84168542  0.62388740     0.07300
Br1454     Br  0.96420246  0.90879742  0.60656306    -0.03300
C1455       C  0.13456651  0.08284008  0.45831938    -0.10000
C1456       C  0.13157021  0.04907132  0.46289537     0.06200
C1457       C  0.15755088  0.02869866  0.46383862    -0.03700
C1458       C  0.18572767  0.04212424  0.45910833    -0.08200
C1459       C  0.18852882  0.07588811  0.45357262     0.05300
C1460       C  0.16256013  0.09639336  0.45423340    -0.03200
Br1461     Br  0.16385173  0.14355368  0.45141551    -0.02900
H1462       H  0.11496825  0.09894488  0.45838974     0.09300
H1463       H  0.20531458  0.02603513  0.45897295     0.07300
Br1464     Br  0.15518800  0.98221179  0.46981957    -0.03300
C1465       C  0.37954140  0.01134680  0.15474425    -0.10000
C1466       C  0.39508475  0.02250745  0.18264963     0.06200
C1467       C  0.42246685  0.03925835  0.18096176    -0.03700
C1468       C  0.43502645  0.04120713  0.15214542    -0.08200
C1469       C  0.42024183  0.02787681  0.12479918     0.05300
C1470       C  0.39197754  0.01369594  0.12605109    -0.03200
Br1471     Br  0.37100831  0.99377898  0.08981553    -0.02900
H1472       H  0.35838653  0.99895295  0.15517581     0.09300
H1473       H  0.45644016  0.05307101  0.15105481     0.07300
Br1474     Br  0.44315529  0.06157774  0.21634749    -0.03300
C1475       C  0.43570890  0.99102281  0.29919791    -0.10000
C1476       C  0.40456785  0.98535611  0.29610177     0.06200
C1477       C  0.39036478  0.97635871  0.32304767    -0.03700
C1478       C  0.40642633  0.97656641  0.35206662    -0.08200
C1479       C  0.43685063  0.98480512  0.35531224     0.05300
C1480       C  0.45189048  0.99044450  0.32825084    -0.03200
Br1481     Br  0.49445975  0.99685329  0.32854544    -0.02900
H1482       H  0.44808540  0.99719526  0.27966942     0.09300
H1483       H  0.39451959  0.97128816  0.37244143     0.07300
Br1484     Br  0.34847195  0.96599487  0.32317424    -0.03300
C1485       C  0.14231128  0.42419736  0.97269123    -0.10000
C1486       C  0.13273167  0.45251551  0.95628694     0.06200
C1487       C  0.15329696  0.46686841  0.93750424    -0.03700
C1488       C  0.18285234  0.45426548  0.93683470    -0.08200
C1489       C  0.19304676  0.42655277  0.95403011     0.05300
C1490       C  0.17157503  0.41070311  0.97116627    -0.03200
Br1491     Br  0.17987071  0.37129573  0.99408321    -0.02900
H1492       H  0.12682210  0.41243351  0.98698699     0.09300
H1493       H  0.19817806  0.46662419  0.92282246     0.07300
Br1494     Br  0.14295261  0.50535361  0.91396243    -0.03300
C1495       C  0.31917317  0.46433687  0.93489313    -0.10000
C1496       C  0.30528763  0.45434808  0.96165533     0.06200
C1497       C  0.31648142  0.46841592  0.99096409    -0.03700
C1498       C  0.34433981  0.48414435  0.99372795    -0.08200
C1499       C  0.36018004  0.48962646  0.96733371     0.05300
C1500       C  0.34610127  0.48194893  0.93754179    -0.03200
Br1501     Br  0.36359244  0.49305845  0.89979570    -0.02900
H1502       H  0.30956360  0.45799595  0.91159923     0.09300
H1503       H  0.35388514  0.49188590  0.01676186     0.07300
Br1504     Br  0.29452888  0.46929987  0.02780599    -0.03300
C1505       C  0.16410061  0.44021153  0.17772410    -0.10000
C1506       C  0.17171922  0.45750723  0.20590738     0.06200
C1507       C  0.20007767  0.45207706  0.22173304    -0.03700
C1508       C  0.21907824  0.42712289  0.21101790    -0.08200
C1509       C  0.20975964  0.40687114  0.18512618     0.05300
C1510       C  0.18281277  0.41477537  0.16738155    -0.03200
Br1511     Br  0.16884099  0.38845473  0.13132740    -0.02900
H1512       H  0.14246982  0.44455145  0.16522401     0.09300
H1513       H  0.23946344  0.42105231  0.22513042     0.07300
Br1514     Br  0.21261652  0.47590105  0.25971445    -0.03300
C1515       C  0.24559455  0.15755649  0.33410588    -0.10000
C1516       C  0.24571673  0.19224139  0.33621551     0.06200
C1517       C  0.24667100  0.20720912  0.36652516    -0.03700
C1518       C  0.24730918  0.18778871  0.39339498    -0.08200
C1519       C  0.24695079  0.15281169  0.39151236     0.05300
C1520       C  0.24632356  0.13808588  0.36083654    -0.03200
Br1521     Br  0.24634038  0.09121571  0.35295391    -0.02900
H1522       H  0.24526439  0.14521991  0.31125243     0.09300
H1523       H  0.24799376  0.20098614  0.41560009     0.07300
Br1524     Br  0.24542719  0.25423233  0.37307205    -0.03300
C1525       C  0.40209849  0.31020510  0.18391302    -0.10000
C1526       C  0.38270451  0.28934624  0.16534507     0.06200
C1527       C  0.39467548  0.26888522  0.14210137    -0.03700
C1528       C  0.42541311  0.26840923  0.13856954    -0.08200
C1529       C  0.44532253  0.28777988  0.15803211     0.05300
C1530       C  0.43324117  0.30958771  0.18039718    -0.03200
Br1531     Br  0.45791124  0.33970840  0.20573639    -0.02900
H1532       H  0.39319962  0.32605729  0.20194799     0.09300
H1533       H  0.43374118  0.25200769  0.12074276     0.07300
Br1534     Br  0.36993773  0.24051193  0.11465045    -0.03300
C1535       C  0.33950034  0.08980490  0.26238947    -0.10000
C1536       C  0.32660441  0.06121599  0.24827623     0.06200
C1537       C  0.29724660  0.06309518  0.23364806    -0.03700
C1538       C  0.28265929  0.09367284  0.23090533    -0.08200
C1539       C  0.29681753  0.12236740  0.24272961     0.05300
C1540       C  0.32469695  0.12009956  0.26014675    -0.03200
Br1541     Br  0.34362186  0.15752080  0.28138342    -0.02900
H1542       H  0.36178645  0.08897178  0.27418765     0.09300
H1543       H  0.26086471  0.09523133  0.21807500     0.07300
Br1544     Br  0.27535001  0.02554184  0.21722222    -0.03300
C1545       C  0.25036282  0.35692959  0.06765028    -0.10000
C1546       C  0.26007791  0.32390425  0.06807469     0.06200
C1547       C  0.26732956  0.30816285  0.03956005    -0.03700
C1548       C  0.26614768  0.32611415  0.01178201    -0.08200
C1549       C  0.25722386  0.35948148  0.01179833     0.05300
C1550       C  0.24858910  0.37451932  0.04000217    -0.03200
Br1551     Br  0.23331052  0.41896524  0.04211139    -0.02900
H1552       H  0.24368477  0.36910857  0.08899782     0.09300
H1553       H  0.27317572  0.31433425  0.99041216     0.07300
Br1554     Br  0.28095983  0.26308983  0.03764777    -0.03300
C1555       C  0.00411538  0.32717825  0.36010709    -0.10000
C1556       C  0.02556967  0.30233159  0.36651054     0.06200
C1557       C  0.04792020  0.30771411  0.39124073    -0.03700
C1558       C  0.04838115  0.33754028  0.40907733    -0.08200
C1559       C  0.02686863  0.36254329  0.40257787     0.05300
C1560       C  0.00470222  0.35701898  0.37757633    -0.03200
Br1561     Br  0.97576617  0.39024696  0.36450085    -0.02900
H1562       H  0.98737373  0.32379618  0.34065463     0.09300
H1563       H  0.06523510  0.34094298  0.42839832     0.07300
Br1564     Br  0.07773381  0.27459253  0.40201705    -0.03300
C1565       C  0.00735156  0.12814925  0.37435299    -0.10000
C1566       C  0.01167083  0.13283774  0.40695660     0.06200
C1567       C  0.01603202  0.16522174  0.41955066    -0.03700
C1568       C  0.01684163  0.19184345  0.39937183    -0.08200
C1569       C  0.01310873  0.18669500  0.36677644     0.05300
C1570       C  0.00728348  0.15466768  0.35440429    -0.03200
Br1571     Br  0.99853253  0.14581746  0.31032174    -0.02900
H1572       H  0.00387478  0.10361412  0.36425179     0.09300
H1573       H  0.02179618  0.21630829  0.40905352     0.07300
Br1574     Br  0.02414706  0.17416473  0.46361379    -0.03300
C1575       C  0.07636464  0.26239047  0.26435695    -0.10000
C1576       C  0.07011027  0.23390594  0.28030830     0.06200
C1577       C  0.08753246  0.20507394  0.27395186    -0.03700
C1578       C  0.11416949  0.20767068  0.25879178    -0.08200
C1579       C  0.12253916  0.23762694  0.24662453     0.05300
C1580       C  0.10166891  0.26449759  0.24738085    -0.03200
Br1581     Br  0.10494341  0.30545387  0.22641613    -0.02900
H1582       H  0.06172255  0.28386765  0.26592989     0.09300
H1583       H  0.12805114  0.18580334  0.25583138     0.07300
Br1584     Br  0.07423534  0.16075161  0.27813306    -0.03300
C1585       C  0.94063558  0.97251793  0.12107667    -0.10000
C1586       C  0.92833759  0.99573988  0.10012340     0.06200
C1587       C  0.90436449  0.01605271  0.10816334    -0.03700
C1588       C  0.89477575  0.01498716  0.13818805    -0.08200
C1589       C  0.90985703  0.99515532  0.16113217     0.05300
C1590       C  0.93072023  0.97114477  0.15114631    -0.03200
Br1591     Br  0.94424063  0.93404750  0.17543163    -0.02900
H1592       H  0.95787901  0.95536485  0.11392774     0.09300
H1593       H  0.87578961  0.03046411  0.14352531     0.07300
Br1594     Br  0.88565669  0.04749229  0.07987110    -0.03300
C1595       C  0.97154138  0.97701059  0.31964232    -0.10000
C1596       C  0.96953168  0.00654898  0.33733531     0.06200
C1597       C  0.95313449  0.03350819  0.32494142    -0.03700
C1598       C  0.93844948  0.03051795  0.29530446    -0.08200
C1599       C  0.93882619  0.00047900  0.27828697     0.05300
C1600       C  0.95588548  0.97364668  0.29022908    -0.03200
Br1601     Br  0.95468890  0.93096659  0.26961805    -0.02900
H1602       H  0.98315951  0.95577679  0.32981629     0.09300
H1603       H  0.92493208  0.05107753  0.28646362     0.07300
Br1604     Br  0.94641352  0.07307803  0.34932533    -0.03300
C1605       C  0.83421694  0.06365295  0.24336847    -0.10000
C1606       C  0.86497120  0.06777031  0.24142637     0.06200
C1607       C  0.87689759  0.09948667  0.24098862    -0.03700
C1608       C  0.85756485  0.12669071  0.24068451    -0.08200
C1609       C  0.82640599  0.12254098  0.24031123     0.05300
C1610       C  0.81471332  0.09068502  0.24209759    -0.03200
Br1611     Br  0.77255671  0.08178411  0.23868342    -0.02900
H1612       H  0.82506548  0.03912069  0.24328292     0.09300
H1613       H  0.86687834  0.15114892  0.24019850     0.07300
Br1614     Br  0.91913641  0.10668883  0.24005215    -0.03300
C1615       C  0.91579441  0.26082510  0.25884056    -0.10000
C1616       C  0.89651919  0.24045387  0.27375675     0.06200
C1617       C  0.90864703  0.22121438  0.29868228    -0.03700
C1618       C  0.93917970  0.22315294  0.30879332    -0.08200
C1619       C  0.95844163  0.24407495  0.29447453     0.05300
C1620       C  0.94638607  0.26302953  0.26913164    -0.03200
Br1621     Br  0.96975585  0.29489594  0.24986096    -0.02900
H1622       H  0.90671912  0.27635949  0.24015791     0.09300
H1623       H  0.94796408  0.20794361  0.32784492     0.07300
Br1624     Br  0.88439645  0.19115068  0.31912885    -0.03300
C1625       C  0.59756092  0.28705151  0.22418954    -0.10000
C1626       C  0.61643175  0.25949064  0.22037394     0.06200
C1627       C  0.60403038  0.23125466  0.20467431    -0.03700
C1628       C  0.57532980  0.23260454  0.18899047    -0.08200
C1629       C  0.55754825  0.26177944  0.18889306     0.05300
C1630       C  0.56826954  0.28809965  0.20940493    -0.03200
Br1631     Br  0.54479936  0.32697907  0.21761984    -0.02900
H1632       H  0.60615080  0.30863314  0.23721248     0.09300
H1633       H  0.56810008  0.21070820  0.17598583     0.07300
Br1634     Br  0.62564261  0.18990832  0.20382388    -0.03300
C1635       C  0.99124098  0.36091178  0.89253643    -0.10000
C1636       C  0.01678567  0.37996042  0.90012770     0.06200
C1637       C  0.04407384  0.36854608  0.88878387    -0.03700
C1638       C  0.04530894  0.33898419  0.87062009    -0.08200
C1639       C  0.01957676  0.31994588  0.86191268     0.05300
C1640       C  0.99202722  0.33190725  0.87346531    -0.03200
Br1641     Br  0.95325078  0.31322403  0.86350320    -0.02900
H1642       H  0.96998152  0.36938564  0.90071273     0.09300
H1643       H  0.06703278  0.33082033  0.86362375     0.07300
Br1644     Br  0.08097937  0.39139384  0.89867696    -0.03300
C1645       C  0.04448532  0.18747854  0.88695153    -0.10000
C1646       C  0.01896349  0.20222010  0.87127124     0.06200
C1647       C  0.99046038  0.19069440  0.87828085    -0.03700
C1648       C  0.98838912  0.16467170  0.89879287    -0.08200
C1649       C  0.01387175  0.14883204  0.91312846     0.05300
C1650       C  0.04227558  0.16132491  0.90753948    -0.03200
Br1651     Br  0.07905937  0.14482647  0.92771317    -0.02900
H1652       H  0.06659715  0.19628493  0.88310275     0.09300
H1653       H  0.96623482  0.15589355  0.90250701     0.07300
Br1654     Br  0.95258386  0.20621961  0.85983964    -0.03300
C1655       C  0.06963999  0.23538543  0.74918820    -0.10000
C1656       C  0.07322421  0.24641937  0.78120153     0.06200
C1657       C  0.10304678  0.25119943  0.79397880    -0.03700
C1658       C  0.12713242  0.24801969  0.77492665    -0.08200
C1659       C  0.12339304  0.23862974  0.74295795     0.05300
C1660       C  0.09424425  0.23141462  0.73034332    -0.03200
Br1661     Br  0.08678195  0.21758006  0.68726633    -0.02900
H1662       H  0.04793507  0.22913264  0.73824799     0.09300
H1663       H  0.14930652  0.25312810  0.78546065     0.07300
Br1664     Br  0.11329120  0.26173571  0.83759974    -0.03300
C1665       C  0.28690426  0.33787348  0.89286348    -0.10000
C1666       C  0.26075251  0.35631329  0.89907036     0.06200
C1667       C  0.23655957  0.35572253  0.87612153    -0.03700
C1668       C  0.23899228  0.33806138  0.84765677    -0.08200
C1669       C  0.26529799  0.32025127  0.84083254     0.05300
C1670       C  0.28919172  0.31967374  0.86437238    -0.03200
Br1671     Br  0.32455790  0.29314536  0.85968837    -0.02900
H1672       H  0.30584933  0.33795735  0.91020709     0.09300
H1673       H  0.22011384  0.33893527  0.83030767     0.07300
Br1674     Br  0.20043576  0.38084365  0.88118663    -0.03300
C1675       C  0.21891207  0.13602224  0.52950921    -0.10000
C1676       C  0.24330805  0.14343753  0.51187671     0.06200
C1677       C  0.26460566  0.16585627  0.52519900    -0.03700
C1678       C  0.26165427  0.18005784  0.55507330    -0.08200
C1679       C  0.23750235  0.17299583  0.57324467     0.05300
C1680       C  0.21563633  0.15079724  0.55966487    -0.03200
Br1681     Br  0.18106893  0.13949736  0.58084503    -0.02900
H1682       H  0.20197727  0.11919133  0.51952663     0.09300
H1683       H  0.27886233  0.19702063  0.56409427     0.07300
Br1684     Br  0.29924624  0.17724671  0.50406715    -0.03300
C1685       C  0.51613893  0.30888128  0.56869557    -0.10000
C1686       C  0.49824757  0.30742002  0.59416070     0.06200
C1687       C  0.47803778  0.33368695  0.59945635    -0.03700
C1688       C  0.47685465  0.36131312  0.58029062    -0.08200
C1689       C  0.49605743  0.36380400  0.55585460     0.05300
C1690       C  0.51511532  0.33644022  0.54952177    -0.03200
Br1691     Br  0.54042157  0.33477545  0.51511876    -0.02900
H1692       H  0.53196152  0.28898186  0.56448335     0.09300
H1693       H  0.46207751  0.38178384  0.58577463     0.07300
Br1694     Br  0.45368561  0.33439048  0.63445647    -0.03300
C1695       C  0.52870696  0.16240004  0.61175648    -0.10000
C1696       C  0.51337898  0.19058467  0.59945184     0.06200
C1697       C  0.50057446  0.18800793  0.56825520    -0.03700
C1698       C  0.50217180  0.15781692  0.55117226    -0.08200
C1699       C  0.51781836  0.13008044  0.56365414     0.05300
C1700       C  0.53202273  0.13320406  0.59396645    -0.03200
Br1701     Br  0.55551949  0.09822307  0.61297839    -0.02900
H1702       H  0.53841967  0.16277743  0.63570579     0.09300
H1703       H  0.49123469  0.15604294  0.52771960     0.07300
Br1704     Br  0.48236704  0.22473309  0.54657322    -0.03300
C1705       C  0.44108300  0.27339759  0.69013804    -0.10000
C1706       C  0.45006858  0.24967454  0.66773923     0.06200
C1707       C  0.42921147  0.22574653  0.65646705    -0.03700
C1708       C  0.39988472  0.22704351  0.66601671    -0.08200
C1709       C  0.39018567  0.25179384  0.68711469     0.05300
C1710       C  0.41163568  0.27467194  0.69985688    -0.03200
Br1711     Br  0.40212166  0.30925632  0.72922083    -0.02900
H1712       H  0.45687892  0.29177464  0.69952952     0.09300
H1713       H  0.38443746  0.20830894  0.65664789     0.07300
Br1714     Br  0.43977391  0.18932148  0.62956556    -0.03300
C1715       C  0.21361805  0.87798075  0.89235907    -0.10000
C1716       C  0.22663070  0.86203889  0.91899565     0.06200
C1717       C  0.23486569  0.82850131  0.91562000    -0.03700
C1718       C  0.23073521  0.81186062  0.88627347    -0.08200
C1719       C  0.21855040  0.82794470  0.85939173     0.05300
C1720       C  0.20970983  0.86139368  0.86282910    -0.03200
Br1721     Br  0.19600035  0.88661751  0.82720606    -0.02900
H1722       H  0.20796042  0.90401736  0.89417020     0.09300
H1723       H  0.23830405  0.78642026  0.88414699     0.07300
Br1724     Br  0.25434316  0.80505929  0.94971656    -0.03300
C1725       C  0.30856718  0.95402955  0.95415855    -0.10000
C1726       C  0.29199023  0.94896389  0.98030187     0.06200
C1727       C  0.30019530  0.96796418  0.00817003    -0.03700
C1728       C  0.32668070  0.98641319  0.01073328    -0.08200
C1729       C  0.34501753  0.98756988  0.98573834     0.05300
C1730       C  0.33438494  0.97323008  0.95659547    -0.03200
Br1731     Br  0.35399900  0.97984012  0.91887655    -0.02900
H1732       H  0.30168139  0.94364207  0.93133178     0.09300
H1733       H  0.33357610  0.99868227  0.03278930     0.07300
Br1734     Br  0.27690713  0.96980873  0.04416461    -0.03300
C1735       C  0.15773107  0.92283513  0.95510796    -0.10000
C1736       C  0.17947177  0.93897223  0.97519733     0.06200
C1737       C  0.17123858  0.96894072  0.99052271    -0.03700
C1738       C  0.14227916  0.98220901  0.98499776    -0.08200
C1739       C  0.12053822  0.96562105  0.96556637     0.05300
C1740       C  0.12846929  0.93560613  0.95053384    -0.03200
Br1741     Br  0.10035998  0.91136799  0.92297020    -0.02900
H1742       H  0.16348669  0.90025051  0.94262836     0.09300
H1743       H  0.13613811  0.00462757  0.99757234     0.07300
Br1744     Br  0.19671089  0.99141521  0.02212657    -0.03300
C1745       C  0.25672745  0.82145900  0.07256556    -0.10000
C1746       C  0.23242009  0.82732850  0.09125998     0.06200
C1747       C  0.20964373  0.84978707  0.08002845    -0.03700
C1748       C  0.21200553  0.86588165  0.05144670    -0.08200
C1749       C  0.23698507  0.86074752  0.03361635     0.05300
C1750       C  0.25937139  0.83800649  0.04459594    -0.03200
Br1751     Br  0.29463822  0.82856525  0.02274397    -0.02900
H1752       H  0.27462241  0.80456087  0.08024831     0.09300
H1753       H  0.19472873  0.88350454  0.04371648     0.07300
Br1754     Br  0.17456759  0.85948632  0.10212992    -0.03300
C1755       C  0.29809901  0.94928380  0.23197296    -0.10000
C1756       C  0.32353557  0.95194521  0.21510868     0.06200
C1757       C  0.32854795  0.92931556  0.19052416    -0.03700
C1758       C  0.30860004  0.90354017  0.18393900    -0.08200
C1759       C  0.28419409  0.89954146  0.20228081     0.05300
C1760       C  0.27816959  0.92356665  0.22551305    -0.03200
Br1761     Br  0.24645237  0.91943657  0.25296429    -0.02900
H1762       H  0.29495377  0.96589119  0.25183536     0.09300
H1763       H  0.31383628  0.88470083  0.16658264     0.07300
Br1764     Br  0.36474559  0.92914889  0.16916078    -0.03300
C1765       C  0.17928129  0.61790673  0.25940185    -0.10000
C1766       C  0.20593431  0.61611426  0.24413990     0.06200
C1767       C  0.21334089  0.58696077  0.22769543    -0.03700
C1768       C  0.19368609  0.56020636  0.22647644    -0.08200
C1769       C  0.16625282  0.56273286  0.24068988     0.05300
C1770       C  0.15902633  0.59226697  0.25684836    -0.03200
Br1771     Br  0.12006873  0.60166013  0.27155759    -0.02900
H1772       H  0.17276062  0.64088018  0.27085479     0.09300
H1773       H  0.19952663  0.53773308  0.21385796     0.07300
Br1774     Br  0.24847962  0.58395176  0.20464224    -0.03300
C1775       C  0.09889390  0.76952424  0.14561541    -0.10000
C1776       C  0.10978523  0.78623861  0.17316802     0.06200
C1777       C  0.08882224  0.80159136  0.19206804    -0.03700
C1778       C  0.05784317  0.80049385  0.18302877    -0.08200
C1779       C  0.04646905  0.78290956  0.15572872     0.05300
C1780       C  0.06798270  0.76722041  0.13695841    -0.03200
Br1781     Br  0.05837218  0.73817595  0.10152714    -0.02900
H1782       H  0.11467821  0.75647848  0.13146944     0.09300
H1783       H  0.04255624  0.81296927  0.19806045     0.07300
Br1784     Br  0.10126047  0.82122836  0.23216183    -0.03300
C1785       C  0.98500699  0.68471096  0.10975489    -0.10000
C1786       C  0.98373936  0.71530069  0.09495948     0.06200
C1787       C  0.98730219  0.71517851  0.06234982    -0.03700
C1788       C  0.99164334  0.68514892  0.04561291    -0.08200
C1789       C  0.99208410  0.65452640  0.06040386     0.05300
C1790       C  0.98897178  0.65480206  0.09309968    -0.03200
Br1791     Br  0.99132451  0.61554273  0.11724374    -0.02900
H1792       H  0.98316556  0.68398003  0.13482717     0.09300
H1793       H  0.99383856  0.68573332  0.02058885     0.07300
Br1794     Br  0.98444211  0.75464490  0.03869498    -0.03300
C1795       C  0.94474197  0.83859841  0.07040583    -0.10000
C1796       C  0.97131510  0.83307470  0.08962547     0.06200
C1797       C  0.99535727  0.85460890  0.08772215    -0.03700
C1798       C  0.99295636  0.88023938  0.06671132    -0.08200
C1799       C  0.96684729  0.88564172  0.04694699     0.05300
C1800       C  0.94233186  0.86460428  0.04913829    -0.03200
Br1801     Br  0.90584787  0.86930713  0.02300534    -0.02900
H1802       H  0.92585694  0.82249091  0.07184548     0.09300
H1803       H  0.01181449  0.89657909  0.06625508     0.07300
Br1804     Br  0.03141562  0.85246344  0.11477031    -0.03300
C1805       C  0.26671232  0.69449987  0.57581554    -0.10000
C1806       C  0.24375832  0.68490799  0.59410704     0.06200
C1807       C  0.22263884  0.66178401  0.58055740    -0.03700
C1808       C  0.22581336  0.64768309  0.55043807    -0.08200
C1809       C  0.24952696  0.65630914  0.53281111     0.05300
C1810       C  0.26940340  0.68087514  0.54547376    -0.03200
Br1811     Br  0.30043658  0.69714484  0.52188368    -0.02900
H1812       H  0.28252531  0.71293968  0.58503529     0.09300
H1813       H  0.21067673  0.62843597  0.54152428     0.07300
Br1814     Br  0.19043216  0.64586356  0.60290850    -0.03300
C1815       C  0.31930219  0.53608410  0.48892140    -0.10000
C1816       C  0.31776525  0.57105300  0.48762799     0.06200
C1817       C  0.34532192  0.58810054  0.49195771    -0.03700
C1818       C  0.37247368  0.57079699  0.49610057    -0.08200
C1819       C  0.37388903  0.53631775  0.49521688     0.05300
C1820       C  0.34695021  0.51885363  0.49259587    -0.03200
Br1821     Br  0.34687259  0.47159475  0.49231429    -0.02900
H1822       H  0.29944087  0.52137732  0.48659476     0.09300
H1823       H  0.39300263  0.58462036  0.49935617     0.07300
Br1824     Br  0.34867728  0.63521796  0.49132534    -0.03300
C1825       C  0.19618966  0.54952443  0.49274014    -0.10000
C1826       C  0.20250702  0.57341554  0.47091897     0.06200
C1827       C  0.18068241  0.57935361  0.44603091    -0.03700
C1828       C  0.15308260  0.56285659  0.44420013    -0.08200
C1829       C  0.14672287  0.53940380  0.46626402     0.05300
C1830       C  0.16876932  0.53272801  0.49060289    -0.03200
Br1831     Br  0.16156611  0.50235539  0.52259825    -0.02900
H1832       H  0.21256255  0.54421954  0.51196246     0.09300
H1833       H  0.13624401  0.56869961  0.42556436     0.07300
Br1834     Br  0.18784714  0.60817549  0.41284214    -0.03300
C1835       C  0.26350836  0.63607250  0.38995308    -0.10000
C1836       C  0.25689643  0.65142680  0.41864482     0.06200
C1837       C  0.24849220  0.68522660  0.41812311    -0.03700
C1838       C  0.24718948  0.70257008  0.38970650    -0.08200
C1839       C  0.25444827  0.68720729  0.36102414     0.05300
C1840       C  0.26241838  0.65314443  0.36174298    -0.03200
Br1841     Br  0.27110031  0.62707965  0.32512115    -0.02900
H1842       H  0.26964198  0.61011488  0.38938535     0.09300
H1843       H  0.24107310  0.72852285  0.39026338     0.07300
Br1844     Br  0.24064059  0.70962874  0.45574329    -0.03300
C1845       C  0.58057226  0.55142695  0.17540009    -0.10000
C1846       C  0.59214083  0.52116211  0.18617522     0.06200
C1847       C  0.59145239  0.49328141  0.16592974    -0.03700
C1848       C  0.57754354  0.49548504  0.13588946    -0.08200
C1849       C  0.56477094  0.52539428  0.12532236     0.05300
C1850       C  0.56744636  0.55394004  0.14493803    -0.03200
Br1851     Br  0.55548173  0.59710626  0.13114066    -0.02900
H1852       H  0.58178419  0.57317113  0.19078681     0.09300
H1853       H  0.57596793  0.47336276  0.12102836     0.07300
Br1854     Br  0.60727951  0.45112720  0.17845529    -0.03300
C1855       C  0.58709744  0.55220597  0.32645932    -0.10000
C1856       C  0.58119133  0.52860193  0.30210333     0.06200
C1857       C  0.55839230  0.50536975  0.30545568    -0.03700
C1858       C  0.54626716  0.50266496  0.33421089    -0.08200
C1859       C  0.55558346  0.52327545  0.35983340     0.05300
C1860       C  0.57471699  0.54970552  0.35512939    -0.03200
Br1861     Br  0.58560272  0.58338101  0.38635814    -0.02900
H1862       H  0.60236556  0.57207552  0.32452080     0.09300
H1863       H  0.53041754  0.48321264  0.33680126     0.07300
Br1864     Br  0.54379409  0.47473554  0.27288274    -0.03300
C1865       C  0.66021361  0.39463013  0.25886230    -0.10000
C1866       C  0.69133743  0.39711402  0.25740278     0.06200
C1867       C  0.70357561  0.42841560  0.25276381    -0.03700
C1868       C  0.68467813  0.45617777  0.25026617    -0.08200
C1869       C  0.65372726  0.45347639  0.25220634     0.05300
C1870       C  0.64144726  0.42222548  0.25602625    -0.03200
Br1871     Br  0.59916799  0.41479225  0.25535459    -0.02900
H1872       H  0.65012519  0.37081910  0.26121238     0.09300
H1873       H  0.69431835  0.48017216  0.24764345     0.07300
Br1874     Br  0.74566498  0.43581752  0.25088242    -0.03300
C1875       C  0.75947597  0.32474319  0.43968953    -0.10000
C1876       C  0.75633369  0.35928217  0.43952533     0.06200
C1877       C  0.75139411  0.37449049  0.41008494    -0.03700
C1878       C  0.74861611  0.35545680  0.38217865    -0.08200
C1879       C  0.75129708  0.32105562  0.38222698     0.05300
C1880       C  0.75716735  0.30567207  0.41137826    -0.03200
Br1881     Br  0.76036911  0.25864771  0.41375452    -0.02900
H1882       H  0.76284668  0.31251646  0.46186235     0.09300
H1883       H  0.74521477  0.36779093  0.36004539     0.07300
Br1884     Br  0.74987090  0.42156590  0.40594813    -0.03300
C1885       C  0.69211403  0.45800417  0.46938494    -0.10000
C1886       C  0.70518710  0.44859069  0.49905367     0.06200
C1887       C  0.69052173  0.45991897  0.52571686    -0.03700
C1888       C  0.66111756  0.47280221  0.52195868    -0.08200
C1889       C  0.64646937  0.47673534  0.49204276     0.05300
C1890       C  0.66279647  0.47080586  0.46563988    -0.03200
Br1891     Br  0.64478486  0.47553244  0.42384347    -0.02900
H1892       H  0.70381808  0.45304393  0.44847975     0.09300
H1893       H  0.64938445  0.47934927  0.54258655     0.07300
Br1894     Br  0.71009302  0.46296950  0.56721993    -0.03300
C1895       C  0.82806490  0.46190183  0.51148294    -0.10000
C1896       C  0.81819564  0.43417490  0.49302821     0.06200
C1897       C  0.83800424  0.42018553  0.47188589    -0.03700
C1898       C  0.86697218  0.43249787  0.47086116    -0.08200
C1899       C  0.87733755  0.45946158  0.48996357     0.05300
C1900       C  0.85700974  0.47476249  0.50996355    -0.03200
Br1901     Br  0.86715592  0.51265271  0.53643549    -0.02900
H1902       H  0.81325128  0.47350935  0.52759880     0.09300
H1903       H  0.88144592  0.42093577  0.45437471     0.07300
Br1904     Br  0.82682840  0.38612503  0.44148532    -0.03300
C1905       C  0.30842586  0.55697753  0.74332218    -0.10000
C1906       C  0.32938649  0.55285328  0.72074445     0.06200
C1907       C  0.32990204  0.57581404  0.69682630    -0.03700
C1908       C  0.31159885  0.60399733  0.69780046    -0.08200
C1909       C  0.29302074  0.61015429  0.72258869     0.05300
C1910       C  0.29064113  0.58539280  0.74486694    -0.03200
Br1911     Br  0.26675709  0.58925127  0.78034050    -0.02900
H1912       H  0.30764038  0.53905663  0.76152326     0.09300
H1913       H  0.31312870  0.62200173  0.67982340     0.07300
Br1914     Br  0.35720805  0.57245050  0.66433757    -0.03300
C1915       C  0.34425368  0.38185359  0.70373301    -0.10000
C1916       C  0.31318469  0.38346366  0.70597711     0.06200
C1917       C  0.29836769  0.41444115  0.70710462    -0.03700
C1918       C  0.31519584  0.44315518  0.70846608    -0.08200
C1919       C  0.34647654  0.44122914  0.70900570     0.05300
C1920       C  0.36099962  0.41048106  0.70527864    -0.03200
Br1921     Br  0.40375142  0.40625853  0.70414043    -0.02900
H1922       H  0.35561080  0.35817370  0.70168275     0.09300
H1923       H  0.30408788  0.46684630  0.71174732     0.07300
Br1924     Br  0.25597293  0.41912782  0.71084853    -0.03300
C1925       C  0.41270769  0.47880416  0.81156569    -0.10000
C1926       C  0.41157485  0.50527880  0.79085422     0.06200
C1927       C  0.42499494  0.53550257  0.80155180    -0.03700
C1928       C  0.43713005  0.53910340  0.83235581    -0.08200
C1929       C  0.43706812  0.51290949  0.85259618     0.05300
C1930       C  0.42531843  0.48243627  0.84205263    -0.03200
Br1931     Br  0.42528059  0.44504199  0.86864842    -0.02900
H1932       H  0.40392503  0.45491755  0.80504363     0.09300
H1933       H  0.44722424  0.56224771  0.84039771     0.07300
Br1934     Br  0.42755259  0.57335819  0.77599886    -0.03300
C1935       C  0.40680164  0.48141534  0.65233594    -0.10000
C1936       C  0.41333759  0.50748367  0.67373470     0.06200
C1937       C  0.43492473  0.53064612  0.66763259    -0.03700
C1938       C  0.45080707  0.52638181  0.64111158    -0.08200
C1939       C  0.44525133  0.49951762  0.62000588     0.05300
C1940       C  0.42232611  0.47716249  0.62552145    -0.03200
Br1941     Br  0.41066149  0.43988572  0.59864937    -0.02900
H1942       H  0.38993795  0.46367830  0.65686939     0.09300
H1943       H  0.46721883  0.54471431  0.63679692     0.07300
Br1944     Br  0.44229316  0.56966788  0.69330550    -0.03300
C1945       C  0.74733215  0.19534679  0.05225403    -0.10000
C1946       C  0.75510026  0.16178874  0.04944965     0.06200
C1947       C  0.76998527  0.14654542  0.07563936    -0.03700
C1948       C  0.77509705  0.16417098  0.10436490    -0.08200
C1949       C  0.76520022  0.19705844  0.10787363     0.05300
C1950       C  0.75232369  0.21296351  0.08099085    -0.03200
Br1951     Br  0.74110339  0.25879359  0.08225461    -0.02900
H1952       H  0.73603144  0.20752854  0.03239894     0.09300
H1953       H  0.78510886  0.15144663  0.12455205     0.07300
Br1954     Br  0.78195790  0.10100611  0.07396301    -0.03300
C1955       C  0.66323791  0.08170003  0.02064776    -0.10000
C1956       C  0.67720593  0.08562954  0.99242281     0.06200
C1957       C  0.66321580  0.06997517  0.96494204    -0.03700
C1958       C  0.63481917  0.05534637  0.96553464    -0.08200
C1959       C  0.61997850  0.05477311  0.99330368     0.05300
C1960       C  0.63524304  0.06681660  0.02120777    -0.03200
Br1961     Br  0.61930698  0.06238639  0.06133430    -0.02900
H1962       H  0.67392174  0.08940388  0.04299180     0.09300
H1963       H  0.62387206  0.04535732  0.94393226     0.07300
Br1964     Br  0.68142630  0.06725733  0.92563147    -0.03300
C1965       C  0.81117024  0.09819636  0.96525855    -0.10000
C1966       C  0.79097574  0.08166892  0.98252708     0.06200
C1967       C  0.80066487  0.05132225  0.99589177    -0.03700
C1968       C  0.83012138  0.03940108  0.99265086    -0.08200
C1969       C  0.85058987  0.05680281  0.97611779     0.05300
C1970       C  0.84008120  0.08613151  0.96140101    -0.03200
Br1971     Br  0.86274806  0.11180178  0.93475272    -0.02900
H1972       H  0.80469418  0.12122158  0.95452999     0.09300
H1973       H  0.83730840  0.01685533  0.00409937     0.07300
Br1974     Br  0.77646211  0.02596740  0.02122040    -0.03300
C1975       C  0.16310449  0.95281063  0.72709516    -0.10000
C1976       C  0.13592229  0.95370853  0.74136028     0.06200
C1977       C  0.12481250  0.92457898  0.75290866    -0.03700
C1978       C  0.14077156  0.89521339  0.74956787    -0.08200
C1979       C  0.16810249  0.89389201  0.73522286     0.05300
C1980       C  0.17946395  0.92341837  0.72414567    -0.03200
Br1981     Br  0.21712537  0.92658386  0.70556779    -0.02900
H1982       H  0.17184397  0.97524983  0.71842164     0.09300
H1983       H  0.13125033  0.87311271  0.75803767     0.07300
Br1984     Br  0.08684989  0.92204584  0.77107756    -0.03300
C1985       C  0.17880282  0.05390079  0.72346300    -0.10000
C1986       C  0.14882950  0.05859080  0.71230922     0.06200
C1987       C  0.14099107  0.08354861  0.69129829    -0.03700
C1988       C  0.16268880  0.10519439  0.68355697    -0.08200
C1989       C  0.19203607  0.10370538  0.69806052     0.05300
C1990       C  0.20062731  0.07621208  0.71640354    -0.03200
Br1991     Br  0.24097881  0.06814820  0.73342179    -0.02900
H1992       H  0.18483583  0.03414704  0.73933519     0.09300
H1993       H  0.15540112  0.12538591  0.66869247     0.07300
Br1994     Br  0.10027042  0.09224425  0.67613076    -0.03300
C1995       C  0.04325316  0.03147357  0.66922817    -0.10000
C1996       C  0.06094411  0.00545794  0.68173490     0.06200
C1997       C  0.06052967  0.97438882  0.66615394    -0.03700
C1998       C  0.04481709  0.97068517  0.63695793    -0.08200
C1999       C  0.02934334  0.99751794  0.62342771     0.05300
C2000       C  0.02766208  0.02775624  0.64000741    -0.03200
Br2001     Br  0.00644822  0.06517006  0.62238018    -0.02900
H2002       H  0.04265762  0.05517241  0.68157096     0.09300
H2003       H  0.04595609  0.94732959  0.62405177     0.07300
Br2004     Br  0.08024566  0.93614187  0.68346635    -0.03300
C2005       C  0.04721249  0.05066608  0.79590618    -0.10000
C2006       C  0.07786755  0.04245472  0.79518127     0.06200
C2007       C  0.09530228  0.03992268  0.82396496    -0.03700
C2008       C  0.08083433  0.03600534  0.85114370    -0.08200
C2009       C  0.04941279  0.03685076  0.85021337     0.05300
C2010       C  0.03275341  0.04729034  0.82314675    -0.03200
Br2011     Br  0.99067268  0.05793992  0.82208038    -0.02900
H2012       H  0.03393007  0.05853222  0.77531208     0.09300
H2013       H  0.09415151  0.03082957  0.87270883     0.07300
Br2014     Br  0.13848017  0.03853164  0.82742742    -0.03300
C2015       C  0.41907322  0.75817848  0.32051690    -0.10000
C2016       C  0.43911019  0.73578109  0.30702816     0.06200
C2017       C  0.42713933  0.71242397  0.28439448    -0.03700
C2018       C  0.39619565  0.71288939  0.27472209    -0.08200
C2019       C  0.37651717  0.73642543  0.28720152     0.05300
C2020       C  0.38832609  0.75877580  0.31079211    -0.03200
Br2021     Br  0.36314686  0.79043089  0.33100994    -0.02900
H2022       H  0.42748681  0.77597210  0.33829662     0.09300
H2023       H  0.38766170  0.69539436  0.25673228     0.07300
Br2024     Br  0.45180328  0.67846161  0.26700335    -0.03300
C2025       C  0.53772654  0.65393332  0.41870558    -0.10800
C2026       C  0.51397461  0.63165075  0.41710325     0.06200
C2027       C  0.48899258  0.63737091  0.39538083    -0.03700
C2028       C  0.48738825  0.66563050  0.37740586    -0.08200
C2029       C  0.51091598  0.68793578  0.37915158     0.05300
C2030       C  0.53654652  0.68168247  0.39977832    -0.03200
Br2031     Br  0.57027199  0.71059424  0.40386078    -0.02900
H2032       H  0.55717065  0.64992290  0.43489383     0.09300
H2033       H  0.46827289  0.66931370  0.36067971     0.07300
Br2034     Br  0.45779695  0.60588656  0.38599451    -0.03300
C2035       C  0.47935193  0.83191665  0.36327585    -0.10000
C2036       C  0.49009030  0.80232875  0.37662213     0.06200
C2037       C  0.49362130  0.80090612  0.40959224    -0.03700
C2038       C  0.48847950  0.82922505  0.42831403    -0.08200
C2039       C  0.47891739  0.85923370  0.41496652     0.05300
C2040       C  0.47355681  0.86006228  0.38205335    -0.03200
Br2041     Br  0.46137153  0.89982131  0.36130870    -0.02900
H2042       H  0.47629672  0.83341509  0.33798824     0.09300
H2043       H  0.49317905  0.82817541  0.45348811     0.07300
Br2044     Br  0.50778792  0.76190840  0.43037771    -0.03300
C2045       C  0.83132016  0.60414134  0.02441401    -0.10000
C2046       C  0.80978648  0.59107593  0.00169756     0.06200
C2047       C  0.82015155  0.56842808  0.97897699    -0.03700
C2048       C  0.85049048  0.55864874  0.97987520    -0.08200
C2049       C  0.87216349  0.57108240  0.00270246     0.05300
C2050       C  0.86208385  0.59443972  0.02510318    -0.03200
Br2051     Br  0.88943644  0.61546900  0.05581550    -0.02900
H2052       H  0.82419022  0.62195394  0.04183068     0.09300
H2053       H  0.85724373  0.54123300  0.96192713     0.07300
Br2054     Br  0.79469100  0.55183802  0.94403041    -0.03300
C2055       C  0.67699243  0.56517530  0.96678745    -0.10000
C2056       C  0.69611865  0.56817088  0.99445016     0.06200
C2057       C  0.68725139  0.55173080  0.02113854    -0.03700
C2058       C  0.65783860  0.53996898  0.02163783    -0.08200
C2059       C  0.63722833  0.54294563  0.99548591     0.05300
C2060       C  0.64783028  0.55341105  0.96723522    -0.03200
Br2061     Br  0.62339543  0.55254053  0.92830103    -0.02900
H2062       H  0.68398682  0.57273567  0.94455801     0.09300
H2063       H  0.65061145  0.53025959  0.04309595     0.07300
Br2064     Br  0.71347016  0.54614118  0.05834680    -0.03300
C2065       C  0.73993964  0.64383458  0.08867000    -0.10000
C2066       C  0.74491803  0.65883877  0.06025029     0.06200
C2067       C  0.74743823  0.69346235  0.06027555    -0.03700
C2068       C  0.74391831  0.71214937  0.08797880    -0.08200
C2069       C  0.73754178  0.69706598  0.11583461     0.05300
C2070       C  0.73635290  0.66249829  0.11617427    -0.03200
Br2071     Br  0.73245796  0.63941754  0.15410680    -0.02900
H2072       H  0.73866822  0.61722563  0.08946215     0.09300
H2073       H  0.74608340  0.73870489  0.08778128     0.07300
Br2074     Br  0.75405636  0.71701310  0.02333956    -0.03300
C2075       C  0.79383628  0.93815447  0.23396823    -0.10000
C2076       C  0.80117670  0.91658437  0.25861458     0.06200
C2077       C  0.82703493  0.92296861  0.27892411    -0.03700
C2078       C  0.84761313  0.94610294  0.27075654    -0.08200
C2079       C  0.84227076  0.96377383  0.24328442     0.05300
C2080       C  0.81410261  0.96188327  0.22639494    -0.03200
Br2081     Br  0.80257453  0.99067794  0.19260184    -0.02900
H2082       H  0.77338577  0.93505649  0.21900526     0.09300
H2083       H  0.86857767  0.94892487  0.28495239     0.07300
Br2084     Br  0.83602839  0.90061865  0.31758134    -0.03300
C2085       C  0.59012857  0.78222220  0.26813756    -0.10000
C2086       C  0.60894960  0.75433470  0.26504023     0.06200
C2087       C  0.59741370  0.72334202  0.27122787    -0.03700
C2088       C  0.56918956  0.72110611  0.28346234    -0.08200
C2089       C  0.55188386  0.74950964  0.29096974     0.05300
C2090       C  0.56145353  0.77985894  0.27962096    -0.03200
Br2091     Br  0.53567389  0.81818369  0.27615309    -0.02900
H2092       H  0.59785656  0.80608484  0.26174348     0.09300
H2093       H  0.56146961  0.69678523  0.28821220     0.07300
Br2094     Br  0.62073272  0.68351970  0.26650657    -0.03300
C2095       C  0.70601608  0.60500168  0.25612937    -0.10000
C2096       C  0.69497355  0.62721303  0.23310094     0.06200
C2097       C  0.67048995  0.61750860  0.21205146    -0.03700
C2098       C  0.65653524  0.58754340  0.21601747    -0.08200
C2099       C  0.66605778  0.56727441  0.24081406     0.05300
C2100       C  0.69158317  0.57546430  0.26024470    -0.03200
Br2101     Br  0.70627613  0.54786480  0.29384695    -0.02900
H2102       H  0.72493851  0.61132377  0.27236713     0.09300
H2103       H  0.63681229  0.58116124  0.20098967     0.07300
Br2104     Br  0.65365092  0.64385719  0.17829510    -0.03300
C2105       C  0.90220369  0.81121678  0.21864820    -0.10000
C2106       C  0.88466028  0.78328835  0.22215509     0.06200
C2107       C  0.89582776  0.75265056  0.21103915    -0.03700
C2108       C  0.92084654  0.75084561  0.19303423    -0.08200
C2109       C  0.93620498  0.77927601  0.18546079     0.05300
C2110       C  0.92832489  0.80912671  0.20163551    -0.03200
Br2111     Br  0.95225059  0.84790355  0.20133036    -0.02900
H2112       H  0.89491544  0.83497092  0.22780466     0.09300
H2113       H  0.92780672  0.72667310  0.18500038     0.07300
Br2114     Br  0.87673024  0.71202721  0.21895949    -0.03300
C2115       C  0.81518629  0.95759544  0.50587976    -0.10000
C2116       C  0.81171734  0.92326565  0.50672764     0.06200
C2117       C  0.83711108  0.90263312  0.50187157    -0.03700
C2118       C  0.86485113  0.91636173  0.49704774    -0.08200
C2119       C  0.86843303  0.95051244  0.49690077     0.05300
C2120       C  0.84327512  0.97124410  0.50115244    -0.03200
Br2121     Br  0.84675221  0.01826027  0.50214536    -0.02900
H2122       H  0.79627004  0.97383290  0.50984336     0.09300
H2123       H  0.88393507  0.90015765  0.49359896     0.07300
Br2124     Br  0.83580731  0.85527166  0.50090849    -0.03300
C2125       C  0.68633704  0.94237934  0.53421709    -0.10000
C2126       C  0.69778576  0.92524950  0.50830255     0.06200
C2127       C  0.67913527  0.92396987  0.48007316    -0.03700
C2128       C  0.64986234  0.93807057  0.47874460    -0.08200
C2129       C  0.63805787  0.95425761  0.50501663     0.05300
C2130       C  0.65722104  0.95676053  0.53280913    -0.03200
Br2131     Br  0.64389118  0.97645228  0.57075328    -0.02900
H2132       H  0.69983081  0.94354559  0.55632280     0.09300
H2133       H  0.63581850  0.93545223  0.45707725     0.07300
Br2134     Br  0.69107996  0.90059482  0.44330210    -0.03300
C2135       C  0.74774495  0.82437204  0.43898995    -0.10000
C2136       C  0.76022641  0.85511090  0.44801071     0.06200
C2137       C  0.77467185  0.87215715  0.42472609    -0.03700
C2138       C  0.77561585  0.85865205  0.39400288    -0.08200
C2139       C  0.76251618  0.82830279  0.38526120     0.05300
C2140       C  0.74899066  0.81094470  0.40853017    -0.03200
Br2141     Br  0.73296737  0.76766724  0.40093874    -0.02900
H2142       H  0.73650332  0.81049018  0.45573956     0.09300
H2143       H  0.78606123  0.87242628  0.37655362     0.07300
Br2144     Br  0.79477453  0.91326038  0.43181805    -0.03300
C2145       C  0.92201637  0.54085572  0.64250676    -0.10000
C2146       C  0.92641647  0.51513859  0.66400271     0.06200
C2147       C  0.94938228  0.49146958  0.65876045    -0.03700
C2148       C  0.96400811  0.49139537  0.63115470    -0.08200
C2149       C  0.95750339  0.51539505  0.60873191     0.05300
C2150       C  0.93749618  0.54137441  0.61544226    -0.03200
Br2151     Br  0.93164707  0.57953083  0.58992045    -0.02900
H2152       H  0.90708827  0.56138912  0.64619415     0.09300
H2153       H  0.98031842  0.47196899  0.62703809     0.07300
Br2154     Br  0.96326967  0.45890980  0.68827569    -0.03300
C2155       C  0.94734732  0.53758058  0.78985920    -0.10000
C2156       C  0.92738011  0.51188121  0.78108322     0.06200
C2157       C  0.92532800  0.48552607  0.80161884    -0.03700
C2158       C  0.94299392  0.48527880  0.82991503    -0.08200
C2159       C  0.96264696  0.51095155  0.83857705     0.05300
C2160       C  0.96460187  0.53747161  0.81854768    -0.03200
Br2161     Br  0.98927958  0.57467176  0.83030641    -0.02900
H2162       H  0.94917329  0.55809522  0.77451656     0.09300
H2163       H  0.94062332  0.46539253  0.84587676     0.07300
Br2164     Br  0.89969013  0.44860785  0.79305680    -0.03300
C2165       C  0.85371297  0.38715131  0.72593893    -0.10000
C2166       C  0.82402900  0.39009600  0.73428483     0.06200
C2167       C  0.81158661  0.42209569  0.73874033    -0.03700
C2168       C  0.82874797  0.44991537  0.73377478    -0.08200
C2169       C  0.85824929  0.44653492  0.72469358     0.05300
C2170       C  0.87083396  0.41461986  0.72161847    -0.03200
Br2171     Br  0.91212882  0.40602160  0.71497833    -0.02900
H2172       H  0.86415098  0.36304097  0.72324352     0.09300
H2173       H  0.81884792  0.47430342  0.73657553     0.07300
Br2174     Br  0.77128007  0.42984430  0.75008386    -0.03300
C2175       C  0.60770571  0.28674724  0.70908918    -0.10000
C2176       C  0.62132900  0.25592554  0.71518020     0.06200
C2177       C  0.60404154  0.22738441  0.71108988    -0.03700
C2178       C  0.57453394  0.22982824  0.69820197    -0.08200
C2179       C  0.56259629  0.25990581  0.68645724     0.05300
C2180       C  0.57827051  0.28910008  0.69556053    -0.03200
Br2181     Br  0.56028822  0.33246528  0.69430993    -0.02900
H2182       H  0.62033745  0.30908133  0.71418946     0.09300
H2183       H  0.56196114  0.20729877  0.69433833     0.07300
Br2184     Br  0.62089764  0.18399886  0.71749408    -0.03300
C2185       C  0.79123313  0.34792825  0.60747328    -0.10000
C2186       C  0.77226679  0.32085146  0.61008508     0.06200
C2187       C  0.75384683  0.31117206  0.58302319    -0.03700
C2188       C  0.75257451  0.32989706  0.55571795    -0.08200
C2189       C  0.76996235  0.35815189  0.55389797     0.05300
C2190       C  0.79012555  0.36646728  0.57988440    -0.03200
Br2191     Br  0.81517530  0.40429258  0.57944779    -0.02900
H2192       H  0.80592434  0.35578422  0.62750251     0.09300
H2193       H  0.73712175  0.32288217  0.53601082     0.07300
Br2194     Br  0.73046342  0.27188878  0.58136590    -0.03300
C2195       C  0.94465486  0.28325128  0.78927656    -0.10000
C2196       C  0.96038442  0.25319032  0.79199579     0.06200
C2197       C  0.94614808  0.22384753  0.78118469    -0.03700
C2198       C  0.91577572  0.22467708  0.77052297    -0.08200
C2199       C  0.89960416  0.25464817  0.76920588     0.05300
C2200       C  0.91438983  0.28418153  0.77825054    -0.03200
Br2201     Br  0.89369973  0.32597915  0.77840317    -0.02900
H2202       H  0.95591548  0.30608007  0.79601388     0.09300
H2203       H  0.90464532  0.20182085  0.76349204     0.07300
Br2204     Br  0.96714484  0.18211812  0.78098813    -0.03300
C2205       C  0.73102746  0.20569837  0.89574590    -0.10000
C2206       C  0.74820051  0.18856420  0.87397208     0.06200
C2207       C  0.76245971  0.15868469  0.88334768    -0.03700
C2208       C  0.75745470  0.14539368  0.91247167    -0.08200
C2209       C  0.74047051  0.16247524  0.93426846     0.05300
C2210       C  0.72787410  0.19339499  0.92587521    -0.03200
Br2211     Br  0.70739530  0.22016148  0.95544605    -0.02900
H2212       H  0.72062615  0.22916520  0.88959263     0.09300
H2213       H  0.76632754  0.12106721  0.91770723     0.07300
Br2214     Br  0.78860358  0.13439949  0.85715481    -0.03300
C2215       C  0.54181536  0.02239993  0.81033747    -0.10000
C2216       C  0.57341716  0.02246359  0.81269062     0.06200
C2217       C  0.58872137  0.02384341  0.84302238    -0.03700
C2218       C  0.57270686  0.02247809  0.86942751    -0.08200
C2219       C  0.54153094  0.02035988  0.86675625     0.05300
C2220       C  0.52587144  0.02109333  0.83698534    -0.03200
Br2221     Br  0.48302572  0.01754172  0.83068501    -0.02900
H2222       H  0.52889372  0.02199028  0.78809840     0.09300
H2223       H  0.58481504  0.02297582  0.89236323     0.07300
Br2224     Br  0.63170089  0.02517427  0.85090502    -0.03300
C2225       C  0.58984315  0.97606522  0.67613918    -0.10000
C2226       C  0.58094505  0.00306605  0.69478920     0.06200
C2227       C  0.56054779  0.02678653  0.68157996    -0.03700
C2228       C  0.54944289  0.02294643  0.65045300    -0.08200
C2229       C  0.55869541  0.99639460  0.63185401     0.05300
C2230       C  0.57850786  0.97239092  0.64485003    -0.03200
Br2231     Br  0.58952433  0.93386625  0.62099565    -0.02900
H2232       H  0.60507065  0.95745822  0.68611818     0.09300
H2233       H  0.53324283  0.04069804  0.64070702     0.07300
Br2234     Br  0.54822448  0.06615160  0.70368510    -0.03300
C2235       C  0.67782404  0.10037176  0.71890441    -0.10000
C2236       C  0.69458921  0.11340707  0.74528772     0.06200
C2237       C  0.69469525  0.09714860  0.77385730    -0.03700
C2238       C  0.67614908  0.07013448  0.77639556    -0.08200
C2239       C  0.65732251  0.05867601  0.75070655     0.05300
C2240       C  0.65919724  0.07325203  0.72136464    -0.03200
Br2241     Br  0.63495922  0.05984451  0.68454887    -0.02900
H2242       H  0.67793116  0.11247446  0.69668203     0.09300
H2243       H  0.67553442  0.05877742  0.79893701     0.07300
Br2244     Br  0.71984761  0.11086546  0.80997559    -0.03300
C2245       C  0.80261043  0.59712294  0.71268225    -0.10000
C2246       C  0.81196712  0.62070745  0.73582997     0.06200
C2247       C  0.83779824  0.61420579  0.75589308    -0.03700
C2248       C  0.85361333  0.58448580  0.75276545    -0.08200
C2249       C  0.84473348  0.56132571  0.72922042     0.05300
C2250       C  0.81893065  0.56763140  0.70913150    -0.03200
Br2251     Br  0.80581577  0.53702751  0.67604343    -0.02900
H2252       H  0.78273707  0.60173878  0.69725796     0.09300
H2253       H  0.87423978  0.58051372  0.76724610     0.07300
Br2254     Br  0.85494699  0.64660783  0.78516590    -0.03300
C2255       C  0.73867668  0.79493028  0.59685810    -0.10000
C2256       C  0.75928585  0.80038840  0.62277283     0.06200
C2257       C  0.78130422  0.82427793  0.62067875    -0.03700
C2258       C  0.78192912  0.84293597  0.59367839    -0.08200
C2259       C  0.76054006  0.83894788  0.56760694     0.05300
C2260       C  0.73908520  0.81367273  0.56963099    -0.03200
Br2261     Br  0.70808005  0.80467625  0.53711647    -0.02900
H2262       H  0.72112578  0.77710524  0.59840623     0.09300
H2263       H  0.79868529  0.86162379  0.59482809     0.07300
Br2264     Br  0.81001964  0.83399384  0.65531136    -0.03300
C2265       C  0.58358839  0.73519624  0.79005631    -0.10000
C2266       C  0.60486700  0.75776927  0.80363402     0.06200
C2267       C  0.59444205  0.78330976  0.82369292    -0.03700
C2268       C  0.56387067  0.78568031  0.82937071    -0.08200
C2269       C  0.54285138  0.76337321  0.81535652     0.05300
C2270       C  0.55311480  0.73769630  0.79576439    -0.03200
Br2271     Br  0.52707519  0.70361392  0.77830014    -0.02900
H2272       H  0.59068241  0.71500348  0.77504168     0.09300
H2273       H  0.55637570  0.80538417  0.84473073     0.07300
Br2274     Br  0.61993096  0.81678492  0.84331070    -0.03300
C2275       C  0.64145142  0.88529920  0.77017437    -0.10000
C2276       C  0.67198692  0.88450350  0.78003686     0.06200
C2277       C  0.68809751  0.91407788  0.78291723    -0.03700
C2278       C  0.67350890  0.94404975  0.77591145    -0.08200
C2279       C  0.64304933  0.94472550  0.76554834     0.05300
C2280       C  0.62690992  0.91508700  0.76299380    -0.03200
Br2281     Br  0.58499680  0.91405117  0.74939754    -0.02900
H2282       H  0.62921621  0.86248203  0.76664373     0.09300
H2283       H  0.68574114  0.96687487  0.77916595     0.07300
Br2284     Br  0.73012956  0.91424616  0.79570187    -0.03300
C2285       C  0.71476973  0.70592112  0.91468589    -0.10000
C2286       C  0.74106489  0.71248160  0.90034521     0.06200
C2287       C  0.76872429  0.70115297  0.91488238    -0.03700
C2288       C  0.76933761  0.67990513  0.94030668    -0.08200
C2289       C  0.74267472  0.67010052  0.95229061     0.05300
C2290       C  0.71537661  0.68547586  0.94067054    -0.03200
Br2291     Br  0.67796195  0.67990633  0.95916628    -0.02900
H2292       H  0.69339316  0.71498075  0.90448768     0.09300
H2293       H  0.79060915  0.66971329  0.94960706     0.07300
Br2294     Br  0.80637265  0.71373931  0.90050534    -0.03300
C2295       C  0.88440699  0.77995376  0.69942090    -0.10000
C2296       C  0.86818773  0.75107880  0.70221622     0.06200
C2297       C  0.87970502  0.72117999  0.69010285    -0.03700
C2298       C  0.90506467  0.72101665  0.67288151    -0.08200
C2299       C  0.92015831  0.75030962  0.66741947     0.05300
C2300       C  0.91045170  0.77972747  0.68295845    -0.03200
Br2301     Br  0.93174027  0.82055497  0.68364636    -0.02900
H2302       H  0.87651453  0.80298123  0.70963195     0.09300
H2303       H  0.91319230  0.69730400  0.66489792     0.07300
Br2304     Br  0.86311529  0.67921987  0.69835348    -0.03300
loop_ 
_geom_bond_atom_site_label_1 
_geom_bond_atom_site_label_2 
_geom_bond_distance 
_geom_bond_site_symmetry_2 
_ccdc_geom_bond_type 
Zr1           O2   2.436       .  S
Zr1           O3   2.416       .  S
Zr1           O4   2.476       .  S
Zr1           O7   2.452       .  S
Zr1           O9   2.375       .  S
Zr1          O10   2.387       .  S
Zr1          O11   2.402       .  S
Zr1          O12   2.410       .  S
O2           H58   0.990       .  S
O2           H66   0.990       .  S
O3           C23   1.282       .  A
O4           C25   1.292       .  A
O5          Zr15   2.411       .  S
O5           C24   1.280       .  A
O6          Zr14   2.423       .  S
O6           C25   1.282       .  A
O7           C24   1.289       .  A
O8          Zr16   2.455       .  S
O8           C23   1.288       .  A
O9          Zr14   2.373       .  S
O9          Zr16   2.364       .  S
O10         Zr15   2.384       .  S
O10         Zr16   2.369       .  S
O10          H45   0.966       .  S
O11         Zr14   2.386       .  S
O11         Zr31   2.404       .  S
O11          H48   0.965       .  S
O12         Zr15   2.390       .  S
O12         Zr31   2.402       .  S
Zr13         O38   2.438       .  S
Zr13         O32   2.463       .  S
Zr13         O40   2.493       .  S
Zr13         O28   2.461       .  S
Zr13         O19   2.411       .  S
Zr13         O20   2.427       .  S
Zr13         O21   2.385       .  S
Zr13         O22   2.384       .  S
Zr14         O33   2.439       .  S
Zr14         O26   2.435       .  S
Zr14         O27   2.380       .  S
Zr14         O20   2.404       .  S
Zr14         O21   2.392       .  S
Zr15         O17   2.434       .  S
Zr15         O39   2.433       .  S
Zr15         O41   2.400       .  S
Zr15         O19   2.389       .  S
Zr15         O22   2.392       .  S
Zr16         O42   2.436       .  S
Zr16         O43   2.435       .  S
Zr16         O18   2.438       .  S
Zr16         O19   2.409       .  S
Zr16         O20   2.403       .  S
O17          H54   0.990       .  S
O18          H49   0.990       .  S
O18          H63   0.990       .  S
O20          H46   0.965       .  S
O21         Zr31   2.368       .  S
O22         Zr31   2.386       .  S
O22          H47   0.966       .  S
C23        C2296   1.484       .  S
C24        C2246   1.472       .  S
C25        C2256   1.487       .  S
O26          H62   0.990       .  S
O27          C29   1.274       .  A
O28          C29   1.288       .  A
C29        C2276   1.457       .  S
O30         Zr31   2.434       .  S
O30          H59   0.990       .  S
Zr31         O34   2.436       .  S
Zr31         O35   2.439       .  S
Zr31         O36   2.430       .  S
O32          C37   1.289       .  A
O33          H50   0.990       .  S
O33          H65   0.990       .  S
O34          H51   0.990       .  S
O35          H55   0.990       .  S
O35          H64   0.990       .  S
O36          C37   1.284       .  A
C37        C2266   1.506       .  S
O38          H57   0.990       .  S
O38          H61   0.990       .  S
O39          H53   0.990       .  S
O39          H60   0.989       .  S
O40          C44   1.296       .  A
O41          C44   1.277       .  A
O42          H52   0.990       .  S
O43          H56   0.990       .  S
C44        C2286   1.492       .  S
C67          C68   1.532       .  S
C67          C73   1.520   1_545  S
C67          C71   1.539       .  S
C67        C2216   1.515       .  S
C68          H75   1.087       .  S
C68          C69   1.366       .  D
C69          C70   1.545       .  S
C69        C2239   1.487       .  S
C70          C74   1.544   1_545  S
C70          C72   1.545       .  S
C70          H76   1.110   1_545  S
C71          H77   1.080       .  S
C71          C72   1.366       .  D
C72        C2226   1.477       .  S
C73          H78   1.088       .  S
C73          C74   1.350       .  D
C74        C2279   1.468       .  S
Zr79         O80   2.439       .  S
Zr79         O81   2.441       .  S
Zr79         O82   2.452       .  S
Zr79         O85   2.470       .  S
Zr79         O87   2.390       .  S
Zr79         O88   2.381       .  S
Zr79         O89   2.415       .  S
Zr79         O90   2.401       .  S
O80         H136   0.990       .  S
O80         H144   0.990       .  S
O81         C101   1.286       .  A
O82         C103   1.288       .  A
O83         Zr93   2.454       .  S
O83         C102   1.288       .  A
O84         Zr92   2.407       .  S
O84         C103   1.281       .  A
O85         C102   1.292       .  A
O86         Zr94   2.430       .  S
O86         C101   1.282       .  A
O87         Zr92   2.403       .  S
O87         Zr94   2.372       .  S
O88         Zr93   2.382       .  S
O88         Zr94   2.382       .  S
O88         H123   0.966       .  S
O89         Zr92   2.408       .  S
O89        Zr109   2.391       .  S
O89         H126   0.966       .  S
O90         Zr93   2.391       .  S
O90        Zr109   2.401       .  S
Zr91        O116   2.440       .  S
Zr91        O110   2.419       .  S
Zr91        O118   2.449       .  S
Zr91        O106   2.481       .  S
Zr91         O97   2.413       .  S
Zr91         O98   2.401       .  S
Zr91         O99   2.375       .  S
Zr91        O100   2.391       .  S
Zr92        O111   2.436       .  S
Zr92        O104   2.435       .  S
Zr92        O105   2.460       .  S
Zr92         O98   2.389       .  S
Zr92         O99   2.376       .  S
Zr93         O95   2.436       .  S
Zr93        O117   2.436       .  S
Zr93        O119   2.424       .  S
Zr93         O97   2.401       .  S
Zr93        O100   2.396       .  S
Zr94        O120   2.435       .  S
Zr94        O121   2.438       .  S
Zr94         O96   2.439       .  S
Zr94         O97   2.402       .  S
Zr94         O98   2.402       .  S
O95         H132   0.990       .  S
O96         H127   0.990       .  S
O96         H141   0.990       .  S
O98         H124   0.966       .  S
O99        Zr109   2.382       .  S
O100       Zr109   2.375       .  S
O100        H125   0.964       .  S
C101       C2236   1.475       .  S
C102       C2206   1.504       .  S
C103       C2176   1.469       .  S
O104        H140   0.990       .  S
O105        C107   1.290       .  A
O106        C107   1.293       .  A
C107       C2186   1.514       .  S
O108       Zr109   2.439       .  S
O108        H137   0.990       .  S
Zr109       O112   2.438       .  S
Zr109       O113   2.440       .  S
Zr109       O114   2.432       .  S
O110        C115   1.284       .  A
O111        H128   0.990       .  S
O111        H143   0.990       .  S
O112        H129   0.989       .  S
O113        H133   0.990       .  S
O113        H142   0.990       .  S
O114        C115   1.282       .  A
C115       C2166   1.485       .  S
O116        H135   0.990       .  S
O116        H139   0.990       .  S
O117        H131   0.990       .  S
O117        H138   0.990       .  S
O118        C122   1.288       .  A
O119        C122   1.283       .  A
O120        H130   0.990       .  S
O121        H134   0.990       .  S
C122       C2199   1.473       .  S
C145        C146   1.538       .  S
C145        C151   1.540       .  S
C145        C149   1.532       .  S
C145       C2146   1.530       .  S
C146        H153   1.080       .  S
C146        C147   1.357       .  D
C147        C148   1.539       .  S
C147       C2249   1.471       .  S
C148        C152   1.541       .  S
C148        C150   1.544       .  S
C148        H154   1.110       .  S
C149        H155   1.086       .  S
C149        C150   1.362       .  D
C150       C2156   1.485       .  S
C151        H156   1.086       .  S
C151        C152   1.369       .  D
C152       C2169   1.485       .  S
C157        C158   1.532       .  S
C157        C163   1.542       .  S
C157        C161   1.551       .  S
C157       C2259   1.564       .  S
C158        H165   1.086       .  S
C158        C159   1.367       .  D
C159        C160   1.571       .  S
C159       C2126   1.524       .  S
C160        C164   1.557       .  S
C160        C162   1.550       .  S
C160        H166   1.106       .  S
C161        H167   1.085       .  S
C161        C162   1.384       .  D
C162       C2136   1.520       .  S
C163        H168   1.080       .  S
C163        C164   1.361       .  D
C164       C2116   1.504       .  S
Zr169       O170   2.435       .  S
Zr169       O171   2.425       .  S
Zr169       O172   2.470       .  S
Zr169       O175   2.474       .  S
Zr169       O177   2.382       .  S
Zr169       O178   2.382       .  S
Zr169       O179   2.413       .  S
Zr169       O180   2.410       .  S
O170        H226   0.990       .  S
O170        H234   0.990       .  S
O171        C191   1.282       .  A
O172        C193   1.292       .  A
O173       Zr183   2.442       .  S
O173        C192   1.286       .  A
O174       Zr182   2.397       .  S
O174        C193   1.277       .  A
O175        C192   1.293       .  A
O176       Zr184   2.415       .  S
O176        C191   1.281       .  A
O177       Zr182   2.386       .  S
O177       Zr184   2.370       .  S
O178       Zr183   2.376       .  S
O178       Zr184   2.378       .  S
O178        H213   0.965       .  S
O179       Zr182   2.388       .  S
O179       Zr199   2.404       .  S
O179        H216   0.966       .  S
O180       Zr183   2.385       .  S
O180       Zr199   2.397       .  S
Zr181       O206   2.437       .  S
Zr181       O200   2.415       .  S
Zr181       O208   2.494       .  S
Zr181       O196   2.535       .  S
Zr181       O187   2.415       .  S
Zr181       O188   2.404       .  S
Zr181       O189   2.388       .  S
Zr181       O190   2.403       .  S
Zr182       O201   2.435       .  S
Zr182       O194   2.436       .  S
Zr182       O195   2.401       .  S
Zr182       O188   2.401       .  S
Zr182       O189   2.379       .  S
Zr183       O185   2.435       .  S
Zr183       O207   2.433       .  S
Zr183       O209   2.411       .  S
Zr183       O187   2.404       .  S
Zr183       O190   2.395       .  S
Zr184       O210   2.436       .  S
Zr184       O211   2.435       .  S
Zr184       O186   2.439       .  S
Zr184       O187   2.395       .  S
Zr184       O188   2.388       .  S
O185        H222   0.990       .  S
O186        H217   0.990       .  S
O186        H231   0.990       .  S
O188        H214   0.966       .  S
O189       Zr199   2.381       .  S
O190       Zr199   2.375       .  S
O190        H215   0.965       .  S
C191       C2096   1.484       .  S
C192       C2086   1.497       .  S
C193       C2069   1.476       .  S
O194        H230   0.991       .  S
O195        C197   1.278       .  A
O196        C197   1.303       .  A
C197       C2106   1.507       .  S
O198       Zr199   2.436       .  S
O198        H227   0.990       .  S
Zr199       O202   2.437       .  S
Zr199       O203   2.438       .  S
Zr199       O204   2.427       .  S
O200        C205   1.281       .  A
O201        H218   0.990       .  S
O201        H233   0.990       .  S
O202        H219   0.990       .  S
O203        H223   0.990       .  S
O203        H232   0.990       .  S
O204        C205   1.284       .  A
C205       C2076   1.481       .  S
O206        H225   0.990       .  S
O206        H229   0.990       .  S
O207        H221   0.989       .  S
O207        H228   0.990       .  S
O208        C212   1.298       .  A
O209        C212   1.281       .  A
O210        H220   0.990       .  S
O211        H224   0.990       .  S
C212       C2139   1.498       .  S
C235        C236   1.543       .  S
C235        C241   1.529   1_556  S
C235        C239   1.540       .  S
C235       C2056   1.551       .  S
C236        H243   1.080       .  S
C236        C237   1.364       .  D
C237        C238   1.556   1_556  S
C237       C2289   1.505       .  S
C238        C242   1.552       .  S
C238        C240   1.561       .  S
C238        H244   1.109       .  S
C239        H245   1.085       .  S
C239        C240   1.379   1_556  D
C240       C2046   1.518       .  S
C241        H246   1.086       .  S
C241        C242   1.361       .  D
C242       C2066   1.493       .  S
C247        C248   1.540       .  S
C247        C253   1.551       .  S
C247        C251   1.550       .  S
C247       C2089   1.563       .  S
C248        H255   1.084       .  S
C248        C249   1.358       .  D
C249        C250   1.546       .  S
C249       C2029   1.487       .  S
C250        C254   1.540       .  S
C250        C252   1.547       .  S
C250        H256   1.111       .  S
C251        H257   1.085       .  S
C251        C252   1.379       .  D
C252       C2016   1.508       .  S
C253        H258   1.083       .  S
C253        C254   1.370       .  D
C254       C2036   1.497       .  S
C259        C260   1.525       .  S
C259        C265   1.537   1_545  S
C259        C263   1.541       .  S
C259       C2006   1.509       .  S
C260        H267   1.087       .  S
C260        C261   1.362       .  D
C261        C262   1.531       .  S
C261       C1986   1.457       .  S
C262        C266   1.530   1_545  S
C262        C264   1.533       .  S
C262        H268   1.111   1_545  S
C263        H269   1.082       .  S
C263        C264   1.355       .  D
C264       C1996   1.465       .  S
C265        H270   1.085       .  S
C265        C266   1.359       .  D
C266       C1976   1.468       .  S
C271        C272   1.545       .  S
C271        C277   1.550   1_556  S
C271        C275   1.545       .  S
C271       C1956   1.558       .  S
C272        H279   1.085       .  S
C272        C273   1.368       .  D
C273        C274   1.553       .  S
C273       C2209   1.505       .  S
C274        C278   1.545   1_556  S
C274        C276   1.549       .  S
C274        H280   1.109       .  S
C275        H281   1.083       .  S
C275        C276   1.373       .  D
C276       C1966   1.505       .  S
C277        H282   1.082       .  S
C277        C278   1.362       .  D
C278       C1946   1.498       .  S
C283        C284   1.541       .  S
C283        C289   1.527       .  S
C283        C287   1.531       .  S
C283       C1926   1.519       .  S
C284        H291   1.080       .  S
C284        C285   1.358       .  D
C285        C286   1.527       .  S
C285       C1919   1.461       .  S
C286        C290   1.531       .  S
C286        C288   1.535       .  S
C286        H292   1.111       .  S
C287        H293   1.086       .  S
C287        C288   1.365       .  D
C288       C1936   1.461       .  S
C289        H294   1.087       .  S
C289        C290   1.361       .  D
C290       C1906   1.472       .  S
C295        C296   1.542       .  S
C295        C301   1.536       .  S
C295        C299   1.540       .  S
C295       C1886   1.550       .  S
C296        H303   1.082       .  S
C296        C297   1.369       .  D
C297        C298   1.562       .  S
C297       C2189   1.507       .  S
C298        C302   1.559       .  S
C298        C300   1.557       .  S
C298        H304   1.109       .  S
C299        H305   1.086       .  S
C299        C300   1.373       .  D
C300       C1896   1.508       .  S
C301        H306   1.086       .  S
C301        C302   1.357       .  D
C302       C1876   1.504       .  S
C307        C308   1.544       .  S
C307        C313   1.530       .  S
C307        C311   1.530       .  S
C307       C1856   1.519       .  S
C308        H315   1.081       .  S
C308        C309   1.363       .  D
C309        C310   1.530       .  S
C309       C2099   1.466       .  S
C310        C314   1.538       .  S
C310        C312   1.533       .  S
C310        H316   1.111       .  S
C311        H317   1.086       .  S
C311        C312   1.362       .  D
C312       C1846   1.463       .  S
C313        H318   1.087       .  S
C313        C314   1.358       .  D
C314       C1869   1.473       .  S
C319        C320   1.530       .  S
C319        C325   1.539       .  S
C319        C323   1.545       .  S
C319       C1816   1.549       .  S
C320        H327   1.087       .  S
C320        C321   1.362       .  D
C321        C322   1.562       .  S
C321       C1809   1.500       .  S
C322        C326   1.567       .  S
C322        C324   1.562       .  S
C322        H328   1.109       .  S
C323        H329   1.080       .  S
C323        C324   1.368       .  D
C324       C1826   1.509       .  S
C325        H330   1.086       .  S
C325        C326   1.372       .  D
C326       C1836   1.521       .  S
C331        C332   1.552       .  S
C331        C337   1.536       .  S
C331        C335   1.550       .  S
C331       C2109   1.568       .  S
C332        H339   1.081       .  S
C332        C333   1.372       .  D
C333        C334   1.550       .  S
C333       C1786   1.511       .  S
C334        C338   1.549       .  S
C334        C336   1.552   1_655  S
C334        H340   1.103   1_655  S
C335        H341   1.085       .  S
C335        C336   1.382   1_655  D
C336       C1779   1.527       .  S
C337        H342   1.086       .  S
C337        C338   1.361       .  D
C338       C1796   1.493       .  S
Zr343       O344   2.436       .  S
Zr343       O345   2.459       .  S
Zr343       O346   2.486       .  S
Zr343       O349   2.457       .  S
Zr343       O351   2.379       .  S
Zr343       O352   2.390       .  S
Zr343       O353   2.414       .  S
Zr343       O354   2.422       .  S
O344        H400   0.990       .  S
O344        H408   0.990       .  S
O345        C365   1.289       .  A
O346        C367   1.294       .  A
O347       Zr357   2.379       .  S
O347        C366   1.277       .  A
O348       Zr356   2.427       .  S
O348        C367   1.283       .  A
O349        C366   1.289       .  A
O350       Zr358   2.479       .  S
O350        C365   1.292       .  A
O351       Zr356   2.384       .  S
O351       Zr358   2.373       .  S
O352       Zr357   2.390       .  S
O352       Zr358   2.367       .  S
O352        H387   0.964       .  S
O353       Zr356   2.393       .  S
O353       Zr373   2.407       .  S
O353        H390   0.966       .  S
O354       Zr357   2.398       .  S
O354       Zr373   2.401       .  S
Zr355       O380   2.438       .  S
Zr355       O374   2.466       .  S
Zr355       O382   2.481       .  S
Zr355       O370   2.433       .  S
Zr355       O361   2.408       .  S
Zr355       O362   2.438       .  S
Zr355       O363   2.388       .  S
Zr355       O364   2.376       .  S
Zr356       O375   2.440       .  S
Zr356       O368   2.437       .  S
Zr356       O369   2.412       .  S
Zr356       O362   2.398       .  S
Zr356       O363   2.387       .  S
Zr357       O359   2.436       .  S
Zr357       O381   2.437       .  S
Zr357       O383   2.425       .  S
Zr357       O361   2.380       .  S
Zr357       O364   2.379       .  S
Zr358       O384   2.435       .  S
Zr358       O385   2.435       .  S
Zr358       O360   2.439       .  S
Zr358       O361   2.421       .  S
Zr358       O362   2.416       .  S
O359        H396   0.990       .  S
O360        H391   0.990       .  S
O360        H405   0.990       .  S
O362        H388   0.965       .  S
O363       Zr373   2.356       .  S
O364       Zr373   2.379       .  S
O364        H389   0.965       .  S
C365       C1839   1.522       .  S
C366       C1766   1.463       .  S
C367       C2019   1.499       .  S
O368        H404   0.990       .  S
O369        C371   1.278       .  A
O370        C371   1.282       .  A
C371       C1759   1.462       .  S
O372       Zr373   2.436       .  S
O372        H401   0.990       .  S
Zr373       O376   2.436       .  S
Zr373       O377   2.438       .  S
Zr373       O378   2.444       .  S
O374        C379   1.290       .  A
O375        H392   0.990       .  S
O375        H407   0.990       .  S
O376        H393   0.990       .  S
O377        H397   0.990       .  S
O377        H406   0.990       .  S
O378        C379   1.288       .  A
C379       C1746   1.512       .  S
O380        H399   0.990       .  S
O380        H403   0.990       .  S
O381        H395   0.990       .  S
O381        H402   0.990       .  S
O382        C386   1.293       .  A
O383        C386   1.282       .  A
O384        H394   0.990       .  S
O385        H398   0.990       .  S
C386       C1776   1.494       .  S
C409        C410   1.552       .  S
C409        C415   1.538   1_556  S
C409        C413   1.529       .  S
C409       C1726   1.547       .  S
C410        H417   1.082       .  S
C410        C411   1.369       .  D
C411        C412   1.554       .  S
C411       C1716   1.505       .  S
C412        C416   1.556   1_556  S
C412        C414   1.551       .  S
C412        H418   1.110       .  S
C413        H419   1.085       .  S
C413        C414   1.366       .  D
C414       C1736   1.495       .  S
C415        H420   1.086       .  S
C415        C416   1.366       .  D
C416       C1749   1.507       .  S
C421        C422   1.537       .  S
C421        C427   1.533       .  S
C421        C425   1.532       .  S
C421       C2179   1.535       .  S
C422        H429   1.082       .  S
C422        C423   1.366       .  D
C423        C424   1.555       .  S
C423       C1686   1.491       .  S
C424        C428   1.564       .  S
C424        C426   1.556       .  S
C424        H430   1.106       .  S
C425        H431   1.086       .  S
C425        C426   1.366       .  D
C426       C1706   1.502       .  S
C427        H432   1.085       .  S
C427        C428   1.361       .  D
C428       C1696   1.515       .  S
Zr433       O434   2.437       .  S
Zr433       O435   2.431       .  S
Zr433       O436   2.491       .  S
Zr433       O439   2.507       .  S
Zr433       O441   2.392       .  S
Zr433       O442   2.388       .  S
Zr433       O443   2.416       .  S
Zr433       O444   2.408       .  S
O434        H490   0.990       .  S
O434        H498   0.990       .  S
O435        C455   1.286       .  A
O436        C457   1.295       .  A
O437       Zr447   2.408       .  S
O437        C456   1.278       .  A
O438       Zr446   2.414       .  S
O438        C457   1.282       .  A
O439        C456   1.299       .  A
O440       Zr448   2.394       .  S
O440        C455   1.276       .  A
O441       Zr446   2.387       .  S
O441       Zr448   2.379       .  S
O442       Zr447   2.384       .  S
O442       Zr448   2.385       .  S
O442        H477   0.966       .  S
O443       Zr446   2.396       .  S
O443       Zr463   2.392       .  S
O443        H480   0.966       .  S
O444       Zr447   2.384       .  S
O444       Zr463   2.404       .  S
Zr445       O470   2.437       .  S
Zr445       O464   2.386       .  S
Zr445       O472   2.514       .  S
Zr445       O460   2.509       .  S
Zr445       O451   2.402       .  S
Zr445       O452   2.402       .  S
Zr445       O453   2.390       .  S
Zr445       O454   2.407       .  S
Zr446       O465   2.437       .  S
Zr446       O458   2.436       .  S
Zr446       O459   2.415       .  S
Zr446       O452   2.395       .  S
Zr446       O453   2.379       .  S
Zr447       O449   2.438       .  S
Zr447       O471   2.443       .  S
Zr447       O473   2.394       .  S
Zr447       O451   2.394       .  S
Zr447       O454   2.389       .  S
Zr448       O474   2.436       .  S
Zr448       O475   2.435       .  S
Zr448       O450   2.436       .  S
Zr448       O451   2.376       .  S
Zr448       O452   2.387       .  S
O449        H486   0.990       .  S
O450        H481   0.990       .  S
O450        H495   0.990       .  S
O452        H478   0.966       .  S
O453       Zr463   2.373       .  S
O454       Zr463   2.377       .  S
O454        H479   0.964       .  S
C455       C1916   1.462       .  S
C456       C1669   1.508       .  S
C457       C1709   1.505       .  S
O458        H494   0.990       .  S
O459        C461   1.283       .  A
O460        C461   1.299       .  A
C461       C1679   1.520       .  S
O462       Zr463   2.436       .  S
O462        H491   0.990       .  S
Zr463       O466   2.436       .  S
Zr463       O467   2.438       .  S
Zr463       O468   2.433       .  S
O464        C469   1.278       .  A
O465        H482   0.990       .  S
O465        H497   0.990       .  S
O466        H483   0.990       .  S
O467        H487   0.991       .  S
O467        H496   0.990       .  S
O468        C469   1.283       .  A
C469       C1989   1.478       .  S
O470        H489   0.990       .  S
O470        H493   0.990       .  S
O471        H485   0.990       .  S
O471        H492   0.990       .  S
O472        C476   1.295       .  A
O473        C476   1.271       .  A
O474        H484   0.990       .  S
O475        H488   0.990       .  S
C476       C1659   1.501       .  S
C499        C500   1.540       .  S
C499        C505   1.554       .  S
C499        C503   1.538       .  S
C499       C1656   1.559       .  S
C500        H507   1.086       .  S
C500        C501   1.371       .  D
C501        C502   1.549       .  S
C501       C1646   1.516       .  S
C502        C506   1.554       .  S
C502        C504   1.548   1_455  S
C502        H508   1.092   1_455  S
C503        H509   1.082       .  S
C503        C504   1.360   1_455  D
C504       C2196   1.478       .  S
C505        H510   1.084       .  S
C505        C506   1.383       .  D
C506       C1639   1.538       .  S
Zr511       O512   2.438       .  S
Zr511       O513   2.425       .  S
Zr511       O514   2.486       .  S
Zr511       O517   2.481       .  S
Zr511       O519   2.386       .  S
Zr511       O520   2.393       .  S
Zr511       O521   2.407       .  S
Zr511       O522   2.408       .  S
O512        H568   0.990       .  S
O512        H576   0.990       .  S
O513        C533   1.285       .  A
O514        C535   1.295       .  A
O515       Zr525   2.424       .  S
O515        C534   1.284       .  A
O516       Zr524   2.431       .  S
O516        C535   1.283       .  A
O517        C534   1.294       .  A
O518       Zr526   2.413       .  S
O518        C533   1.279       .  A
O519       Zr524   2.396       .  S
O519       Zr526   2.379       .  S
O520       Zr525   2.385       .  S
O520       Zr526   2.377       .  S
O520        H555   0.966       .  S
O521       Zr524   2.402       .  S
O521       Zr541   2.395       .  S
O521        H558   0.967       .  S
O522       Zr525   2.396       .  S
O522       Zr541   2.383       .  S
Zr523       O548   2.437       .  S
Zr523       O542   2.404       .  S
Zr523       O550   2.469       .  S
Zr523       O538   2.467       .  S
Zr523       O529   2.398       .  S
Zr523       O530   2.404       .  S
Zr523       O531   2.387       .  S
Zr523       O532   2.388       .  S
Zr524       O543   2.437       .  S
Zr524       O536   2.435       .  S
Zr524       O537   2.434       .  S
Zr524       O530   2.404       .  S
Zr524       O531   2.378       .  S
Zr525       O527   2.435       .  S
Zr525       O549   2.437       .  S
Zr525       O551   2.441       .  S
Zr525       O529   2.390       .  S
Zr525       O532   2.384       .  S
Zr526       O552   2.436       .  S
Zr526       O553   2.434       .  S
Zr526       O528   2.437       .  S
Zr526       O529   2.397       .  S
Zr526       O530   2.391       .  S
O527        H564   0.991       .  S
O528        H559   0.988       .  S
O528        H573   0.989       .  S
O530        H556   0.965       .  S
O531       Zr541   2.373       .  S
O532       Zr541   2.382       .  S
O532        H557   0.966       .  S
C533       C1866   1.478       .  S
C534       C1626   1.496       .  S
C535       C1879   1.493       .  S
O536        H572   0.990       .  S
O537        C539   1.285       .  A
O538        C539   1.291       .  A
C539       C1616   1.488       .  S
O540       Zr541   2.439       .  S
O540        H569   0.990       .  S
Zr541       O544   2.438       .  S
Zr541       O545   2.440       .  S
Zr541       O546   2.410       .  S
O542        C547   1.281       .  A
O543        H560   0.990       .  S
O543        H575   0.990       .  S
O544        H561   0.990       .  S
O545        H565   0.989       .  S
O545        H574   0.990       .  S
O546        C547   1.280       .  A
C547       C1609   1.459       .  S
O548        H567   0.990       .  S
O548        H571   0.990       .  S
O549        H563   0.989       .  S
O549        H570   0.990       .  S
O550        C554   1.291       .  A
O551        C554   1.286       .  A
O552        H562   0.990       .  S
O553        H566   0.990       .  S
C554       C1949   1.497       .  S
C577        C578   1.542   1_565  S
C577        C583   1.531       .  S
C577        C581   1.541       .  S
C577       C1589   1.518       .  S
C578        H585   1.085       .  S
C578        C579   1.355       .  D
C579        C580   1.520       .  S
C579       C1606   1.454       .  S
C580        C584   1.525   1_545  S
C580        C582   1.533   1_545  S
C580        H586   1.112       .  S
C581        H587   1.085       .  S
C581        C582   1.365       .  D
C582       C1599   1.463   1_565  S
C583        H588   1.086       .  S
C583        C584   1.363       .  D
C584       C2079   1.470       .  S
C589        C590   1.533       .  S
C589        C595   1.544       .  S
C589        C593   1.541       .  S
C589       C1576   1.540       .  S
C590        H597   1.079       .  S
C590        C591   1.362       .  D
C591        C592   1.540       .  S
C591       C1569   1.479       .  S
C592        C596   1.549       .  S
C592        C594   1.548   1_455  S
C592        H598   1.111   1_455  S
C593        H599   1.086       .  S
C593        C594   1.370   1_455  D
C594       C1619   1.499       .  S
C595        H600   1.086       .  S
C595        C596   1.364       .  D
C596       C1556   1.492       .  S
Zr601       O602   2.439       .  S
Zr601       O603   2.453       .  S
Zr601       O604   2.469       .  S
Zr601       O607   2.458       .  S
Zr601       O609   2.381       .  S
Zr601       O610   2.384       .  S
Zr601       O611   2.417       .  S
Zr601       O612   2.410       .  S
O602        H658   0.990       .  S
O602        H666   0.990       .  S
O603        C623   1.289       .  A
O604        C625   1.289       .  A
O605       Zr615   2.388       .  S
O605        C624   1.276       .  A
O606       Zr614   2.411       .  S
O606        C625   1.280       .  A
O607        C624   1.288       .  A
O608       Zr616   2.432       .  S
O608        C623   1.282       .  A
O609       Zr614   2.382       .  S
O609       Zr616   2.375       .  S
O610       Zr615   2.381       .  S
O610       Zr616   2.376       .  S
O610        H645   0.967       .  S
O611       Zr614   2.391       .  S
O611       Zr631   2.410       .  S
O611        H648   0.965       .  S
O612       Zr615   2.388       .  S
O612       Zr631   2.410       .  S
Zr613       O638   2.437       .  S
Zr613       O632   2.440       .  S
Zr613       O640   2.471       .  S
Zr613       O628   2.425       .  S
Zr613       O619   2.401       .  S
Zr613       O620   2.419       .  S
Zr613       O621   2.380       .  S
Zr613       O622   2.372       .  S
Zr614       O633   2.439       .  S
Zr614       O626   2.435       .  S
Zr614       O627   2.400       .  S
Zr614       O620   2.393       .  S
Zr614       O621   2.380       .  S
Zr615       O617   2.435       .  S
Zr615       O639   2.438       .  S
Zr615       O641   2.397       .  S
Zr615       O619   2.384       .  S
Zr615       O622   2.383       .  S
Zr616       O642   2.437       .  S
Zr616       O643   2.435       .  S
Zr616       O618   2.439       .  S
Zr616       O619   2.407       .  S
Zr616       O620   2.397       .  S
O617        H654   0.990       .  S
O618        H649   0.990       .  S
O618        H663   0.990       .  S
O620        H646   0.965       .  S
O621       Zr631   2.354       .  S
O622       Zr631   2.375       .  S
O622        H647   0.965       .  S
C623       C1546   1.487       .  S
C624       C1509   1.468       .  S
C625       C1526   1.480       .  S
O626        H662   0.990       .  S
O627        C629   1.280       .  A
O628        C629   1.284       .  A
C629       C1539   1.459       .  S
O630       Zr631   2.435       .  S
O630        H659   0.990       .  S
Zr631       O634   2.436       .  S
Zr631       O635   2.439       .  S
Zr631       O636   2.473       .  S
O632        C637   1.287       .  A
O633        H650   0.990       .  S
O633        H665   0.990       .  S
O634        H651   0.990       .  S
O635        H655   0.990       .  S
O635        H664   0.989       .  S
O636        C637   1.292       .  A
C637       C1516   1.509       .  S
O638        H657   0.990       .  S
O638        H661   0.990       .  S
O639        H653   0.990       .  S
O639        H660   0.990       .  S
O640        C644   1.293       .  A
O641        C644   1.275       .  A
O642        H652   0.990       .  S
O643        H656   0.990       .  S
C644       C1579   1.498       .  S
C667        C668   1.540       .  S
C667        C673   1.537       .  S
C667        C671   1.544       .  S
C667       C1496   1.555       .  S
C668        H675   1.084       .  S
C668        C669   1.361       .  D
C669        C670   1.561       .  S
C669       C1666   1.504       .  S
C670        C674   1.551       .  S
C670        C672   1.560       .  S
C670        H676   1.107       .  S
C671        H677   1.085       .  S
C671        C672   1.380       .  D
C672       C1489   1.526       .  S
C673        H678   1.085   1_556  S
C673        C674   1.364       .  D
C674       C1549   1.489   1_556  S
C679        C680   1.526       .  S
C679        C685   1.534   1_565  S
C679        C683   1.540   1_565  S
C679       C1476   1.519       .  S
C680        H687   1.086       .  S
C680        C681   1.361       .  D
C681        C682   1.536   1_565  S
C681       C1756   1.461       .  S
C682        C686   1.531       .  S
C682        C684   1.542       .  S
C682        H688   1.108       .  S
C683        H689   1.078       .  S
C683        C684   1.364       .  D
C684       C1466   1.484       .  S
C685        H690   1.087       .  S
C685        C686   1.360       .  D
C686       C1536   1.477       .  S
Zr691       O692   2.439       .  S
Zr691       O693   2.426       .  S
Zr691       O694   2.455       .  S
Zr691       O697   2.415       .  S
Zr691       O699   2.370       .  S
Zr691       O700   2.390   1_655  S
Zr691       O701   2.396   1_565  S
Zr691       O702   2.408   1_665  S
O692        H748   0.990       .  S
O692        H756   0.990   1_565  S
O693        C713   1.281       .  A
O694        C715   1.287       .  A
O695       Zr705   2.403       .  S
O695        C714   1.280   1_545  A
O696       Zr704   2.446       .  S
O696        C715   1.285       .  A
O697        C714   1.281   1_655  A
O698       Zr706   2.441       .  S
O698        C713   1.284   1_455  A
O699       Zr704   2.387       .  S
O699       Zr706   2.379   1_655  S
O700       Zr705   2.396   1_565  S
O700       Zr706   2.364       .  S
O700        H735   0.964       .  S
O701       Zr704   2.390   1_545  S
O701       Zr721   2.404       .  S
O701        H738   0.967       .  S
O702       Zr705   2.400       .  S
O702       Zr721   2.388   1_455  S
Zr703       O728   2.443   1_545  S
Zr703       O722   2.438       .  S
Zr703       O730   2.453       .  S
Zr703       O718   2.420       .  S
Zr703       O709   2.399   1_545  S
Zr703       O710   2.415   1_445  S
Zr703       O711   2.387   1_455  S
Zr703       O712   2.372       .  S
Zr704       O723   2.437   1_565  S
Zr704       O716   2.436       .  S
Zr704       O717   2.406       .  S
Zr704       O710   2.404       .  S
Zr704       O711   2.393   1_565  S
Zr705       O707   2.437       .  S
Zr705       O729   2.437   1_545  S
Zr705       O731   2.450       .  S
Zr705       O709   2.384   1_545  S
Zr705       O712   2.379       .  S
Zr706       O732   2.437       .  S
Zr706       O733   2.434       .  S
Zr706       O708   2.438   1_455  S
Zr706       O709   2.407       .  S
Zr706       O710   2.399   1_455  S
O707        H744   0.990       .  S
O708        H739   0.990       .  S
O708        H753   0.989       .  S
O710        H736   0.966       .  S
O711       Zr721   2.376       .  S
O712       Zr721   2.379   1_455  S
O712        H737   0.966       .  S
C713       C1446   1.494       .  S
C714       C1999   1.445       .  S
C715       C2119   1.486       .  S
O716        H752   0.990       .  S
O717        C719   1.280   1_565  A
O718        C719   1.281   1_455  A
C719       C1596   1.449       .  S
O720       Zr721   2.434       .  S
O720        H749   0.990       .  S
Zr721       O724   2.434       .  S
Zr721       O725   2.438   1_655  S
Zr721       O726   2.428       .  S
O722        C727   1.287       .  A
O723        H740   0.990       .  S
O723        H755   0.990       .  S
O724        H741   0.990       .  S
O725        H745   0.989       .  S
O725        H754   0.990       .  S
O726        C727   1.282   1_655  A
C727       C1566   1.482       .  S
O728        H747   0.990       .  S
O728        H751   0.990       .  S
O729        H743   0.990       .  S
O729        H750   0.990       .  S
O730        C734   1.288       .  A
O731        C734   1.286       .  A
O732        H742   0.990       .  S
O733        H746   0.990       .  S
C734       C1456   1.488       .  S
Zr757       O758   2.436       .  S
Zr757       O759   2.359       .  S
Zr757       O760   2.462       .  S
Zr757       O763   2.460       .  S
Zr757       O765   2.386   1_545  S
Zr757       O766   2.386   1_455  S
Zr757       O767   2.390   1_556  S
Zr757       O768   2.393       .  S
O758        H814   0.990       .  S
O758        H822   0.990       .  S
O759        C779   1.272       .  A
O760        C781   1.290   1_545  A
O761       Zr771   2.439       .  S
O761        C780   1.288   1_655  A
O762       Zr770   2.406       .  S
O762        C781   1.279       .  A
O763        C780   1.290       .  A
O764       Zr772   2.435   1_445  S
O764        C779   1.286       .  A
O765       Zr770   2.371       .  S
O765       Zr772   2.369   1_455  S
O766       Zr771   2.369       .  S
O766       Zr772   2.366   1_545  S
O766        H801   0.965       .  S
O767       Zr770   2.401   1_544  S
O767       Zr787   2.388   1_455  S
O767        H804   0.966       .  S
O768       Zr771   2.396   1_455  S
O768       Zr787   2.386   1_456  S
Zr769       O794   2.437       .  S
Zr769       O788   2.407   1_556  S
Zr769       O796   2.462   1_565  S
Zr769       O784   2.470   1_556  S
Zr769       O775   2.405   1_565  S
Zr769       O776   2.411       .  S
Zr769       O777   2.380   1_556  S
Zr769       O778   2.389   1_566  S
Zr770       O789   2.438   1_556  S
Zr770       O782   2.436       .  S
Zr770       O783   2.405   1_456  S
Zr770       O776   2.386   1_455  S
Zr770       O777   2.375   1_456  S
Zr771       O773   2.435       .  S
Zr771       O795   2.438       .  S
Zr771       O797   2.426       .  S
Zr771       O775   2.396       .  S
Zr771       O778   2.383   1_556  S
Zr772       O798   2.434   1_565  S
Zr772       O799   2.437       .  S
Zr772       O774   2.438       .  S
Zr772       O775   2.399   1_565  S
Zr772       O776   2.402       .  S
O773        H810   0.990   1_556  S
O774        H805   0.990       .  S
O774        H819   0.990   1_655  S
O776        H802   0.966       .  S
O777       Zr787   2.369   1_565  S
O778       Zr787   2.375       .  S
O778        H803   0.966       .  S
C779       C2009   1.450       .  S
C780       C1649   1.506       .  S
C781       C1739   1.477       .  S
O782        H818   0.990       .  S
O783        C785   1.281       .  A
O784        C785   1.291       .  A
C785       C1799   1.491       .  S
O786       Zr787   2.436   1_455  S
O786        H815   0.990       .  S
Zr787       O790   2.434   1_655  S
Zr787       O791   2.437       .  S
Zr787       O792   2.404       .  S
O788        C793   1.280       .  A
O789        H806   0.990       .  S
O789        H821   0.990       .  S
O790        H807   0.990   1_545  S
O791        H811   0.990       .  S
O791        H820   0.990       .  S
O792        C793   1.279   1_545  A
C793       C1586   1.446       .  S
O794        H813   0.990       .  S
O794        H817   0.990       .  S
O795        H809   0.990       .  S
O795        H816   0.990       .  S
O796        C800   1.291       .  A
O797        C800   1.283       .  A
O798        H808   0.990       .  S
O799        H812   0.990       .  S
C800       C1969   1.502       .  S
Zr823       O824   2.437       .  S
Zr823       O825   2.427       .  S
Zr823       O826   2.492       .  S
Zr823       O829   2.508   1_545  S
Zr823       O831   2.391       .  S
Zr823       O832   2.390   1_545  S
Zr823       O833   2.413       .  S
Zr823       O834   2.402   1_545  S
O824        H880   0.990       .  S
O824        H888   0.990       .  S
O825        C845   1.283   1_545  A
O826        C847   1.297       .  A
O827       Zr837   2.438       .  S
O827        C846   1.285       .  A
O828       Zr836   2.406       .  S
O828        C847   1.279       .  A
O829        C846   1.300       .  A
O830       Zr838   2.412       .  S
O830        C845   1.279       .  A
O831       Zr836   2.392       .  S
O831       Zr838   2.375   1_545  S
O832       Zr837   2.383       .  S
O832       Zr838   2.383       .  S
O832        H867   0.968       .  S
O833       Zr836   2.403       .  S
O833       Zr853   2.389       .  S
O833        H870   0.966       .  S
O834       Zr837   2.395       .  S
O834       Zr853   2.395   1_565  S
Zr835       O860   2.437       .  S
Zr835       O854   2.385       .  S
Zr835       O862   2.481       .  S
Zr835       O850   2.512       .  S
Zr835       O841   2.411       .  S
Zr835       O842   2.399       .  S
Zr835       O843   2.386   1_565  S
Zr835       O844   2.397       .  S
Zr836       O855   2.438       .  S
Zr836       O848   2.435       .  S
Zr836       O849   2.438       .  S
Zr836       O842   2.391   1_545  S
Zr836       O843   2.378       .  S
Zr837       O839   2.435       .  S
Zr837       O861   2.434       .  S
Zr837       O863   2.425       .  S
Zr837       O841   2.402       .  S
Zr837       O844   2.385       .  S
Zr838       O864   2.435       .  S
Zr838       O865   2.437       .  S
Zr838       O840   2.439       .  S
Zr838       O841   2.396       .  S
Zr838       O842   2.398       .  S
O839        H876   0.990       .  S
O840        H871   0.990       .  S
O840        H885   0.990   1_565  S
O842        H868   0.967       .  S
O843       Zr853   2.379       .  S
O844       Zr853   2.367   1_565  S
O844        H869   0.965       .  S
C845       C2229   1.457       .  S
C846       C2129   1.520       .  S
C847       C1699   1.493       .  S
O848        H884   0.990       .  S
O849        C851   1.285       .  A
O850        C851   1.301   1_565  A
C851       C1436   1.522       .  S
O852       Zr853   2.435       .  S
O852        H881   0.990       .  S
Zr853       O856   2.437       .  S
Zr853       O857   2.438   1_545  S
Zr853       O858   2.420       .  S
O854        C859   1.278       .  A
O855        H872   0.990       .  S
O855        H887   0.990       .  S
O856        H873   0.990       .  S
O857        H877   0.990       .  S
O857        H886   0.990       .  S
O858        C859   1.281   1_545  A
C859       C1479   1.469       .  S
O860        H879   0.990       .  S
O860        H883   0.990       .  S
O861        H875   0.990       .  S
O861        H882   0.990       .  S
O862        C866   1.295       .  A
O863        C866   1.284       .  A
O864        H874   0.990       .  S
O865        H878   0.990       .  S
C866       C2039   1.491       .  S
C889        C890   1.536       .  S
C889        C895   1.537       .  S
C889        C893   1.557       .  S
C889       C1519   1.564       .  S
C890        H897   1.087       .  S
C890        C891   1.370       .  D
C891        C892   1.552       .  S
C891       C1459   1.500       .  S
C892        C896   1.569       .  S
C892        C894   1.544       .  S
C892        H898   1.110       .  S
C893        H899   1.080       .  S
C893        C894   1.373       .  D
C894       C1676   1.508       .  S
C895        H900   1.086       .  S
C895        C896   1.369       .  D
C896       C1439   1.516       .  S
Zr901       O902   2.437       .  S
Zr901       O903   2.420   1_565  S
Zr901       O904   2.471       .  S
Zr901       O907   2.472   1_565  S
Zr901       O909   2.379       .  S
Zr901       O910   2.383   1_565  S
Zr901       O911   2.410   1_556  S
Zr901       O912   2.408   1_566  S
O902        H958   0.990       .  S
O902        H966   0.990       .  S
O903        C923   1.284       .  A
O904        C925   1.292       .  A
O905       Zr915   2.428       .  S
O905        C924   1.284   1_554  A
O906       Zr914   2.425       .  S
O906        C925   1.283       .  A
O907        C924   1.292       .  A
O908       Zr916   2.389       .  S
O908        C923   1.275       .  A
O909       Zr914   2.376       .  S
O909       Zr916   2.377   1_565  S
O910       Zr915   2.370   1_556  S
O910       Zr916   2.378       .  S
O910        H945   0.968       .  S
O911       Zr914   2.385   1_554  S
O911       Zr931   2.404       .  S
O911        H948   0.965       .  S
O912       Zr915   2.382       .  S
O912       Zr931   2.406   1_545  S
Zr913       O938   2.442       .  S
Zr913       O932   2.411       .  S
Zr913       O940   2.504       .  S
Zr913       O928   2.507       .  S
Zr913       O919   2.403   1_554  S
Zr913       O920   2.402   1_554  S
Zr913       O921   2.396   1_545  S
Zr913       O922   2.394       .  S
Zr914       O933   2.437   1_556  S
Zr914       O926   2.434       .  S
Zr914       O927   2.394       .  S
Zr914       O920   2.406   1_565  S
Zr914       O921   2.389   1_556  S
Zr915       O917   2.434       .  S
Zr915       O939   2.437   1_554  S
Zr915       O941   2.391       .  S
Zr915       O919   2.400   1_554  S
Zr915       O922   2.385       .  S
Zr916       O942   2.437       .  S
Zr916       O943   2.435       .  S
Zr916       O918   2.439       .  S
Zr916       O919   2.385       .  S
Zr916       O920   2.372       .  S
O917        H954   0.990       .  S
O918        H949   0.990       .  S
O918        H963   0.990       .  S
O920        H946   0.966       .  S
O921       Zr931   2.375       .  S
O922       Zr931   2.372   1_545  S
O922        H947   0.965       .  S
C923       C2219   1.457       .  S
C924       C1959   1.495       .  S
C925       C1419   1.495       .  S
O926        H962   0.990       .  S
O927        C929   1.278       .  A
O928        C929   1.299   1_544  A
C929       C1729   1.489       .  S
O930       Zr931   2.440       .  S
O930        H959   0.991       .  S
Zr931       O934   2.438       .  S
Zr931       O935   2.441   1_565  S
Zr931       O936   2.431   1_565  S
O932        C937   1.281       .  A
O933        H950   0.990       .  S
O933        H965   0.990   1_554  S
O934        H951   0.990       .  S
O935        H955   0.990       .  S
O935        H964   0.989       .  S
O936        C937   1.283       .  A
C937       C1469   1.461       .  S
O938        H957   0.990   1_554  S
O938        H961   0.990   1_554  S
O939        H953   0.990       .  S
O939        H960   0.990   1_556  S
O940        C944   1.299       .  A
O941        C944   1.278       .  A
O942        H952   0.990       .  S
O943        H956   0.990       .  S
C944       C1429   1.495       .  S
C967        C968   1.536       .  S
C967        C973   1.554       .  S
C967        C971   1.555       .  S
C967       C1629   1.560       .  S
C968        H975   1.083       .  S
C968        C969   1.363       .  D
C969        C970   1.547       .  S
C969       C1406   1.506       .  S
C970        C974   1.540       .  S
C970        C972   1.536       .  S
C970        H976   1.109       .  S
C971        H977   1.085       .  S
C971        C972   1.379       .  D
C972       C1529   1.498       .  S
C973        H978   1.081       .  S
C973        C974   1.366       .  D
C974       C1426   1.494       .  S
Zr979       O980   2.435       .  S
Zr979       O981   2.423       .  S
Zr979       O982   2.470       .  S
Zr979       O985   2.466       .  S
Zr979       O987   2.388       .  S
Zr979       O988   2.387       .  S
Zr979       O989   2.409       .  S
Zr979       O990   2.406   1_556  S
O980       H1036   0.990       .  S
O980       H1044   0.990       .  S
O981       C1001   1.282       .  A
O982       C1003   1.291       .  A
O983       Zr993   2.432   1_556  S
O983       C1002   1.285       .  A
O984       Zr992   2.410       .  S
O984       C1003   1.281       .  A
O985       C1002   1.291       .  A
O986       Zr994   2.386       .  S
O986       C1001   1.275       .  A
O987       Zr992   2.393       .  S
O987       Zr994   2.383       .  S
O988       Zr993   2.375   1_556  S
O988       Zr994   2.374       .  S
O988       H1023   0.964       .  S
O989       Zr992   2.387       .  S
O989      Zr1009   2.400   1_556  S
O989       H1026   0.967   1_556  S
O990       Zr993   2.384       .  S
O990      Zr1009   2.396       .  S
Zr991      O1016   2.438       .  S
Zr991      O1010   2.402       .  S
Zr991      O1018   2.460       .  S
Zr991      O1006   2.472       .  S
Zr991       O997   2.400   1_554  S
Zr991       O998   2.392   1_554  S
Zr991       O999   2.389       .  S
Zr991      O1000   2.390       .  S
Zr992      O1011   2.435   1_556  S
Zr992      O1004   2.433       .  S
Zr992      O1005   2.423       .  S
Zr992       O998   2.396       .  S
Zr992       O999   2.374   1_556  S
Zr993       O995   2.434       .  S
Zr993      O1017   2.439   1_554  S
Zr993      O1019   2.412       .  S
Zr993       O997   2.400   1_554  S
Zr993      O1000   2.388       .  S
Zr994      O1020   2.435       .  S
Zr994      O1021   2.435       .  S
Zr994       O996   2.438       .  S
Zr994       O997   2.384       .  S
Zr994       O998   2.363       .  S
O995       H1032   0.990       .  S
O996       H1027   0.990       .  S
O996       H1041   0.990       .  S
O998       H1024   0.964       .  S
O999      Zr1009   2.383       .  S
O1000     Zr1009   2.376       .  S
O1000      H1025   0.965       .  S
C1001      C1929   1.445       .  S
C1002      C1499   1.489       .  S
C1003      C1396   1.497       .  S
O1004      H1040   0.990       .  S
O1005      C1007   1.284       .  A
O1006      C1007   1.292   1_554  A
C1007      C2059   1.487       .  S
O1008     Zr1009   2.436       .  S
O1008      H1037   0.990       .  S
Zr1009     O1012   2.435       .  S
Zr1009     O1013   2.442       .  S
Zr1009     O1014   2.426       .  S
O1010      C1015   1.280       .  A
O1011      H1028   0.990       .  S
O1011      H1043   0.990       .  S
O1012      H1029   0.991       .  S
O1013      H1033   0.990       .  S
O1013      H1042   0.989       .  S
O1014      C1015   1.283       .  A
C1015      C1849   1.468       .  S
O1016      H1035   0.990       .  S
O1016      H1039   0.990       .  S
O1017      H1031   0.990       .  S
O1017      H1038   0.990       .  S
O1018      C1022   1.291       .  A
O1019      C1022   1.281       .  A
O1020      H1030   0.990       .  S
O1021      H1034   0.990       .  S
C1022      C1409   1.484       .  S
Zr1045     O1046   2.435       .  S
Zr1045     O1047   2.399       .  S
Zr1045     O1048   2.496       .  S
Zr1045     O1051   2.499       .  S
Zr1045     O1053   2.384       .  S
Zr1045     O1054   2.390       .  S
Zr1045     O1055   2.413       .  S
Zr1045     O1056   2.402       .  S
O1046      H1102   0.991       .  S
O1046      H1110   0.990       .  S
O1047      C1067   1.278       .  A
O1048      C1069   1.297       .  A
O1049     Zr1059   2.412       .  S
O1049      C1068   1.280       .  A
O1050     Zr1058   2.409   1_455  S
O1050      C1069   1.281       .  A
O1051      C1068   1.299       .  A
O1052     Zr1060   2.446   1_455  S
O1052      C1067   1.287       .  A
O1053     Zr1058   2.388   1_455  S
O1053     Zr1060   2.362   1_455  S
O1054     Zr1059   2.389       .  S
O1054     Zr1060   2.367   1_455  S
O1054      H1089   0.967       .  S
O1055     Zr1058   2.403   1_455  S
O1055     Zr1075   2.401       .  S
O1055      H1092   0.966       .  S
O1056     Zr1059   2.406       .  S
O1056     Zr1075   2.394       .  S
Zr1057     O1082   2.437       .  S
Zr1057     O1076   2.410       .  S
Zr1057     O1084   2.465       .  S
Zr1057     O1072   2.462       .  S
Zr1057     O1063   2.407       .  S
Zr1057     O1064   2.405       .  S
Zr1057     O1065   2.383       .  S
Zr1057     O1066   2.384   1_655  S
Zr1058     O1077   2.434       .  S
Zr1058     O1070   2.433       .  S
Zr1058     O1071   2.429       .  S
Zr1058     O1064   2.391       .  S
Zr1058     O1065   2.374       .  S
Zr1059     O1061   2.433       .  S
Zr1059     O1083   2.437       .  S
Zr1059     O1085   2.444       .  S
Zr1059     O1063   2.390   1_455  S
Zr1059     O1066   2.380       .  S
Zr1060     O1086   2.435   1_655  S
Zr1060     O1087   2.435       .  S
Zr1060     O1062   2.436       .  S
Zr1060     O1063   2.410       .  S
Zr1060     O1064   2.401       .  S
O1061      H1098   0.990       .  S
O1062      H1093   0.990       .  S
O1062      H1107   0.990       .  S
O1064      H1090   0.965       .  S
O1065     Zr1075   2.378   1_655  S
O1066     Zr1075   2.364       .  S
O1066      H1091   0.965       .  S
C1067      C1389   1.475       .  S
C1068      C1829   1.492       .  S
C1069      C1559   1.494       .  S
O1070      H1106   0.990       .  S
O1071      C1073   1.285       .  A
O1072      C1073   1.289       .  A
C1073      C1899   1.504       .  S
O1074     Zr1075   2.438       .  S
O1074      H1103   0.991       .  S
Zr1075     O1078   2.439       .  S
Zr1075     O1079   2.440       .  S
Zr1075     O1080   2.423   1_455  S
O1076      C1081   1.281       .  A
O1077      H1094   0.990       .  S
O1077      H1109   0.990       .  S
O1078      H1095   0.990   1_455  S
O1079      H1099   0.990       .  S
O1079      H1108   0.990       .  S
O1080      C1081   1.283       .  A
C1081      C2149   1.472       .  S
O1082      H1101   0.990       .  S
O1082      H1105   0.990       .  S
O1083      H1097   0.990       .  S
O1083      H1104   0.990       .  S
O1084      C1088   1.292       .  A
O1085      C1088   1.286   1_455  A
O1086      H1096   0.990       .  S
O1087      H1100   0.990       .  S
C1088      C1376   1.496       .  S
Zr1111     O1112   2.435       .  S
Zr1111     O1113   2.455       .  S
Zr1111     O1114   2.488       .  S
Zr1111     O1117   2.457       .  S
Zr1111     O1119   2.374       .  S
Zr1111     O1120   2.390   1_455  S
Zr1111     O1121   2.415       .  S
Zr1111     O1122   2.423       .  S
O1112      H1168   0.990       .  S
O1112      H1176   0.990       .  S
O1113      C1133   1.288       .  A
O1114      C1135   1.295       .  A
O1115     Zr1125   2.392       .  S
O1115      C1134   1.277       .  A
O1116     Zr1124   2.447   1_556  S
O1116      C1135   1.287       .  A
O1117      C1134   1.289   1_455  A
O1118     Zr1126   2.468       .  S
O1118      C1133   1.291   1_655  A
O1119     Zr1124   2.383   1_556  S
O1119     Zr1126   2.371   1_455  S
O1120     Zr1125   2.398       .  S
O1120     Zr1126   2.366       .  S
O1120      H1155   0.965       .  S
O1121     Zr1124   2.388   1_556  S
O1121     Zr1141   2.419       .  S
O1121      H1158   0.966       .  S
O1122     Zr1125   2.394   1_455  S
O1122     Zr1141   2.410       .  S
Zr1123     O1148   2.440       .  S
Zr1123     O1142   2.447       .  S
Zr1123     O1150   2.509       .  S
Zr1123     O1138   2.457   1_655  S
Zr1123     O1129   2.406   1_554  S
Zr1123     O1130   2.433   1_655  S
Zr1123     O1131   2.386   1_655  S
Zr1123     O1132   2.373   1_554  S
Zr1124     O1143   2.439       .  S
Zr1124     O1136   2.436       .  S
Zr1124     O1137   2.401       .  S
Zr1124     O1130   2.410       .  S
Zr1124     O1131   2.392       .  S
Zr1125     O1127   2.436       .  S
Zr1125     O1149   2.438       .  S
Zr1125     O1151   2.424       .  S
Zr1125     O1129   2.386       .  S
Zr1125     O1132   2.377       .  S
Zr1126     O1152   2.435       .  S
Zr1126     O1153   2.435   1_556  S
Zr1126     O1128   2.439   1_656  S
Zr1126     O1129   2.414       .  S
Zr1126     O1130   2.412   1_656  S
O1127      H1164   0.990       .  S
O1128      H1159   0.990       .  S
O1128      H1173   0.990       .  S
O1130      H1156   0.966       .  S
O1131     Zr1141   2.358   1_554  S
O1132     Zr1141   2.380   1_655  S
O1132      H1157   0.968       .  S
C1133      C1636   1.508       .  S
C1134      C2159   1.461       .  S
C1135      C1486   1.508       .  S
O1136      H1172   0.990       .  S
O1137      C1139   1.279       .  A
O1138      C1139   1.289       .  A
C1139      C1366   1.463       .  S
O1140     Zr1141   2.439       .  S
O1140      H1169   0.990       .  S
Zr1141     O1144   2.438   1_556  S
Zr1141     O1145   2.439       .  S
Zr1141     O1146   2.456   1_556  S
O1142      C1147   1.287       .  A
O1143      H1160   0.990       .  S
O1143      H1175   0.990       .  S
O1144      H1161   0.990   1_554  S
O1145      H1165   0.990       .  S
O1145      H1174   0.990   1_455  S
O1146      C1147   1.289   1_455  A
C1147      C1789   1.503       .  S
O1148      H1167   0.990       .  S
O1148      H1171   0.990       .  S
O1149      H1163   0.990       .  S
O1149      H1170   0.990       .  S
O1150      C1154   1.298   1_554  A
O1151      C1154   1.284       .  A
O1152      H1162   0.990       .  S
O1153      H1166   0.990       .  S
C1154      C2049   1.519   1_556  S
C1177      C1178   1.533       .  S
C1177      C1183   1.535       .  S
C1177      C1181   1.538       .  S
C1177      C1386   1.533       .  S
C1178      H1185   1.085       .  S
C1178      C1179   1.367       .  D
C1179      C1180   1.541       .  S
C1179      C1769   1.481       .  S
C1180      C1184   1.535       .  S
C1180      C1182   1.542       .  S
C1180      H1186   1.111       .  S
C1181      H1187   1.081       .  S
C1181      C1182   1.356       .  D
C1182      C1369   1.481       .  S
C1183      H1188   1.086       .  S
C1183      C1184   1.368       .  D
C1184      C1506   1.474       .  S
Zr1189     O1190   2.437       .  S
Zr1189     O1191   2.404       .  S
Zr1189     O1192   2.469       .  S
Zr1189     O1195   2.464       .  S
Zr1189     O1197   2.390       .  S
Zr1189     O1198   2.389       .  S
Zr1189     O1199   2.405       .  S
Zr1189     O1200   2.409       .  S
O1190      H1246   0.990       .  S
O1190      H1254   0.990       .  S
O1191      C1211   1.279       .  A
O1192      C1213   1.291       .  A
O1193     Zr1203   2.425       .  S
O1193      C1212   1.280       .  A
O1194     Zr1202   2.427       .  S
O1194      C1213   1.283       .  A
O1195      C1212   1.291       .  A
O1196     Zr1204   2.416       .  S
O1196      C1211   1.282       .  A
O1197     Zr1202   2.393       .  S
O1197     Zr1204   2.380       .  S
O1198     Zr1203   2.383       .  S
O1198     Zr1204   2.365       .  S
O1198      H1233   0.963       .  S
O1199     Zr1202   2.397       .  S
O1199     Zr1219   2.378       .  S
O1199      H1236   0.967       .  S
O1200     Zr1203   2.388       .  S
O1200     Zr1219   2.403       .  S
Zr1201     O1226   2.436       .  S
Zr1201     O1220   2.392       .  S
Zr1201     O1228   2.462       .  S
Zr1201     O1216   2.461       .  S
Zr1201     O1207   2.396       .  S
Zr1201     O1208   2.402       .  S
Zr1201     O1209   2.385       .  S
Zr1201     O1210   2.395       .  S
Zr1202     O1221   2.438       .  S
Zr1202     O1214   2.435       .  S
Zr1202     O1215   2.437       .  S
Zr1202     O1208   2.397       .  S
Zr1202     O1209   2.381       .  S
Zr1203     O1205   2.435       .  S
Zr1203     O1227   2.443       .  S
Zr1203     O1229   2.415       .  S
Zr1203     O1207   2.402       .  S
Zr1203     O1210   2.364       .  S
Zr1204     O1230   2.435       .  S
Zr1204     O1231   2.435       .  S
Zr1204     O1206   2.437       .  S
Zr1204     O1207   2.392       .  S
Zr1204     O1208   2.394       .  S
O1205      H1242   0.990       .  S
O1206      H1237   0.990       .  S
O1206      H1251   0.990       .  S
O1208      H1234   0.966       .  S
O1209     Zr1219   2.374       .  S
O1210     Zr1219   2.376       .  S
O1210      H1235   0.966       .  S
C1211      C1859   1.471       .  S
C1212      C2026   1.488       .  S
C1213      C1889   1.481       .  S
O1214      H1250   0.990       .  S
O1215      C1217   1.286       .  A
O1216      C1217   1.291       .  A
C1217      C1689   1.500       .  S
O1218     Zr1219   2.441       .  S
O1218      H1247   0.990       .  S
Zr1219     O1222   2.436       .  S
Zr1219     O1223   2.438       .  S
Zr1219     O1224   2.416       .  S
O1220      C1225   1.276       .  A
O1221      H1238   0.990       .  S
O1221      H1253   0.990       .  S
O1222      H1239   0.990       .  S
O1223      H1243   0.990       .  S
O1223      H1252   0.990       .  S
O1224      C1225   1.284       .  A
C1225      C1939   1.471       .  S
O1226      H1245   0.990       .  S
O1226      H1249   0.990       .  S
O1227      H1241   0.990       .  S
O1227      H1248   0.989       .  S
O1228      C1232   1.287       .  A
O1229      C1232   1.279       .  A
O1230      H1240   0.990       .  S
O1231      H1244   0.990       .  S
C1232      C1819   1.483       .  S
C1255      C1256   1.547       .  S
C1255      C1261   1.537       .  S
C1255      C1259   1.535       .  S
C1255      C2299   1.543       .  S
C1256      H1263   1.082       .  S
C1256      C1257   1.366       .  D
C1257      C1258   1.547       .  S
C1257      C1379   1.494       .  S
C1258      C1262   1.546       .  S
C1258      C1260   1.544   1_655  S
C1258      H1264   1.109   1_655  S
C1259      H1265   1.086       .  S
C1259      C1260   1.362   1_655  D
C1260      C1359   1.484       .  S
C1261      H1266   1.086       .  S
C1261      C1262   1.370       .  D
C1262      C1449   1.492       .  S
Zr1267     O1268   2.439       .  S
Zr1267     O1269   2.401       .  S
Zr1267     O1270   2.490       .  S
Zr1267     O1273   2.477       .  S
Zr1267     O1275   2.382       .  S
Zr1267     O1276   2.395       .  S
Zr1267     O1277   2.400       .  S
Zr1267     O1278   2.405       .  S
O1268      H1324   0.990       .  S
O1268      H1332   0.990       .  S
O1269      C1289   1.281       .  A
O1270      C1291   1.295       .  A
O1271     Zr1281   2.414       .  S
O1271      C1290   1.281       .  A
O1272     Zr1280   2.432       .  S
O1272      C1291   1.284       .  A
O1273      C1290   1.293       .  A
O1274     Zr1282   2.416       .  S
O1274      C1289   1.279       .  A
O1275     Zr1280   2.387       .  S
O1275     Zr1282   2.376       .  S
O1276     Zr1281   2.386       .  S
O1276     Zr1282   2.373       .  S
O1276      H1311   0.965       .  S
O1277     Zr1280   2.388       .  S
O1277     Zr1297   2.395       .  S
O1277      H1314   0.966       .  S
O1278     Zr1281   2.384       .  S
O1278     Zr1297   2.390       .  S
Zr1279     O1304   2.439       .  S
Zr1279     O1298   2.426       .  S
Zr1279     O1306   2.501       .  S
Zr1279     O1294   2.497       .  S
Zr1279     O1285   2.412       .  S
Zr1279     O1286   2.409       .  S
Zr1279     O1287   2.398       .  S
Zr1279     O1288   2.386       .  S
Zr1280     O1299   2.436       .  S
Zr1280     O1292   2.436       .  S
Zr1280     O1293   2.414       .  S
Zr1280     O1286   2.406       .  S
Zr1280     O1287   2.394       .  S
Zr1281     O1283   2.432       .  S
Zr1281     O1305   2.437       .  S
Zr1281     O1307   2.413       .  S
Zr1281     O1285   2.399       .  S
Zr1281     O1288   2.376       .  S
Zr1282     O1308   2.434       .  S
Zr1282     O1309   2.435       .  S
Zr1282     O1284   2.437       .  S
Zr1282     O1285   2.399       .  S
Zr1282     O1286   2.381       .  S
O1283      H1320   0.990       .  S
O1284      H1315   0.990       .  S
O1284      H1329   0.990       .  S
O1286      H1312   0.966       .  S
O1287     Zr1297   2.387       .  S
O1288     Zr1297   2.378       .  S
O1288      H1313   0.965       .  S
C1289      C1979   1.480       .  S
C1290      C1356   1.488       .  S
C1291      C1719   1.501       .  S
O1292      H1328   0.991       .  S
O1293      C1295   1.282       .  A
O1294      C1295   1.297       .  A
C1295      C1346   1.495       .  S
O1296     Zr1297   2.437       .  S
O1296      H1325   0.990       .  S
Zr1297     O1300   2.434       .  S
Zr1297     O1301   2.440       .  S
Zr1297     O1302   2.414       .  S
O1298      C1303   1.284       .  A
O1299      H1316   0.990       .  S
O1299      H1331   0.990       .  S
O1300      H1317   0.989       .  S
O1301      H1321   0.990       .  S
O1301      H1330   0.990       .  S
O1302      C1303   1.279       .  A
C1303      C1909   1.482       .  S
O1304      H1323   0.991       .  S
O1304      H1327   0.990       .  S
O1305      H1319   0.991       .  S
O1305      H1326   0.990       .  S
O1306      C1310   1.298       .  A
O1307      C1310   1.280       .  A
O1308      H1318   0.990       .  S
O1309      H1322   0.990       .  S
C1310      C1806   1.503       .  S
C1333      C1334   1.553       .  S
C1333      C1339   1.537       .  S
C1333      C1337   1.545       .  S
C1333      C1349   1.560       .  S
C1334      H1341   1.078       .  S
C1334      C1335   1.368       .  D
C1335      C1336   1.535       .  S
C1335      C1416   1.492       .  S
C1336      C1340   1.548       .  S
C1336      C1338   1.541       .  S
C1336      H1342   1.109       .  S
C1337      H1343   1.085       .  S
C1337      C1338   1.375       .  D
C1338      C2269   1.495       .  S
C1339      H1344   1.086       .  S
C1339      C1340   1.365       .  D
C1340      C1399   1.499       .  S
C1345      C1346   1.406       .  A
C1345      C1350   1.406       .  A
C1345      H1352   1.084       .  S
C1346      C1347   1.406       .  A
C1347      C1348   1.411       .  A
C1347     Br1354   1.918       .  S
C1348      C1349   1.421       .  A
C1348      H1353   1.083       .  S
C1349      C1350   1.422       .  A
C1350     Br1351   1.921       .  S
C1355      C1356   1.406       .  A
C1355      C1360   1.410       .  A
C1355      H1362   1.083       .  S
C1356      C1357   1.415       .  A
C1357      C1358   1.397       .  A
C1357     Br1364   1.918       .  S
C1358      C1359   1.396       .  A
C1358      H1363   1.083       .  S
C1359      C1360   1.412       .  A
C1360     Br1361   1.917       .  S
C1365      C1366   1.396       .  A
C1365      C1370   1.393       .  A
C1365      H1372   1.084       .  S
C1366      C1367   1.409       .  A
C1367      C1368   1.403       .  A
C1367     Br1374   1.918       .  S
C1368      C1369   1.403       .  A
C1368      H1373   1.083       .  S
C1369      C1370   1.414       .  A
C1370     Br1371   1.923       .  S
C1375      C1376   1.405       .  A
C1375      C1380   1.404       .  A
C1375      H1382   1.083       .  S
C1376      C1377   1.419   1_655  A
C1377      C1378   1.406       .  A
C1377     Br1384   1.919       .  S
C1378      C1379   1.401   1_455  A
C1378      H1383   1.082       .  S
C1379      C1380   1.413       .  A
C1380     Br1381   1.919       .  S
C1385      C1386   1.413       .  A
C1385      C1390   1.394       .  A
C1385      H1392   1.077       .  S
C1386      C1387   1.417       .  A
C1387      C1388   1.398       .  A
C1387     Br1394   1.921       .  S
C1388      C1389   1.404       .  A
C1388      H1393   1.084       .  S
C1389      C1390   1.404       .  A
C1390     Br1391   1.919       .  S
C1395      C1396   1.411       .  A
C1395      C1400   1.400       .  A
C1395      H1402   1.083       .  S
C1396      C1397   1.412       .  A
C1397      C1398   1.402       .  A
C1397     Br1404   1.915       .  S
C1398      C1399   1.410       .  A
C1398      H1403   1.083       .  S
C1399      C1400   1.411       .  A
C1400     Br1401   1.917       .  S
C1405      C1406   1.408       .  A
C1405      C1410   1.402       .  A
C1405      H1412   1.081       .  S
C1406      C1407   1.425       .  A
C1407      C1408   1.399       .  A
C1407     Br1414   1.919       .  S
C1408      C1409   1.398       .  A
C1408      H1413   1.084       .  S
C1409      C1410   1.412       .  A
C1410     Br1411   1.920       .  S
C1415      C1416   1.406       .  A
C1415      C1420   1.409       .  A
C1415      H1422   1.083       .  S
C1416      C1417   1.405       .  A
C1417      C1418   1.404       .  A
C1417     Br1424   1.917       .  S
C1418      C1419   1.410       .  A
C1418      H1423   1.084       .  S
C1419      C1420   1.414       .  A
C1420     Br1421   1.920       .  S
C1425      C1426   1.409       .  A
C1425      C1430   1.410       .  A
C1425      H1432   1.083       .  S
C1426      C1427   1.404       .  A
C1427      C1428   1.402       .  A
C1427     Br1434   1.918       .  S
C1428      C1429   1.413       .  A
C1428      H1433   1.084       .  S
C1429      C1430   1.411       .  A
C1430     Br1431   1.917       .  S
C1435      C1436   1.410       .  A
C1435      C1440   1.418       .  A
C1435      H1442   1.083       .  S
C1436      C1437   1.426       .  A
C1437      C1438   1.412       .  A
C1437     Br1444   1.918       .  S
C1438      C1439   1.401       .  A
C1438      H1443   1.084       .  S
C1439      C1440   1.419       .  A
C1440     Br1441   1.916       .  S
C1445      C1446   1.412       .  A
C1445      C1450   1.406       .  A
C1445      H1452   1.083       .  S
C1446      C1447   1.417       .  A
C1447      C1448   1.395       .  A
C1447     Br1454   1.925       .  S
C1448      C1449   1.403       .  A
C1448      H1453   1.083       .  S
C1449      C1450   1.410       .  A
C1450     Br1451   1.918       .  S
C1455      C1456   1.400       .  A
C1455      C1460   1.401       .  A
C1455      H1462   1.084       .  S
C1456      C1457   1.412       .  A
C1457      C1458   1.412       .  A
C1457     Br1464   1.917   1_545  S
C1458      C1459   1.406       .  A
C1458      H1463   1.083       .  S
C1459      C1460   1.418       .  A
C1460     Br1461   1.923       .  S
C1465      C1466   1.402       .  A
C1465      C1470   1.391       .  A
C1465      H1472   1.081   1_545  S
C1466      C1467   1.418       .  A
C1467      C1468   1.397       .  A
C1467     Br1474   1.924       .  S
C1468      C1469   1.398       .  A
C1468      H1473   1.084       .  S
C1469      C1470   1.403       .  A
C1470     Br1471   1.915   1_545  S
C1475      C1476   1.411       .  A
C1475      C1480   1.391       .  A
C1475      H1482   1.074       .  S
C1476      C1477   1.417       .  A
C1477      C1478   1.387       .  A
C1477     Br1484   1.927       .  S
C1478      C1479   1.402       .  A
C1478      H1483   1.084       .  S
C1479      C1480   1.408       .  A
C1480     Br1481   1.925       .  S
C1485      C1486   1.408       .  A
C1485      C1490   1.415       .  A
C1485      H1492   1.084       .  S
C1486      C1487   1.410       .  A
C1487      C1488   1.410       .  A
C1487     Br1494   1.915       .  S
C1488      C1489   1.412       .  A
C1488      H1493   1.083       .  S
C1489      C1490   1.424       .  A
C1490     Br1491   1.917       .  S
C1495      C1496   1.416       .  A
C1495      C1500   1.406       .  A
C1495      H1502   1.081       .  S
C1496      C1497   1.421       .  A
C1497      C1498   1.405       .  A
C1497     Br1504   1.917   1_556  S
C1498      C1499   1.402       .  A
C1498      H1503   1.084   1_556  S
C1499      C1500   1.407       .  A
C1500     Br1501   1.915       .  S
C1505      C1506   1.399       .  A
C1505      C1510   1.399       .  A
C1505      H1512   1.084       .  S
C1506      C1507   1.409       .  A
C1507      C1508   1.398       .  A
C1507     Br1514   1.917       .  S
C1508      C1509   1.401       .  A
C1508      H1513   1.084       .  S
C1509      C1510   1.412       .  A
C1510     Br1511   1.920       .  S
C1515      C1516   1.407       .  A
C1515      C1520   1.408       .  A
C1515      H1522   1.084       .  S
C1516      C1517   1.413       .  A
C1517      C1518   1.412       .  A
C1517     Br1524   1.920       .  S
C1518      C1519   1.419       .  A
C1518      H1523   1.075       .  S
C1519      C1520   1.423       .  A
C1520     Br1521   1.921       .  S
C1525      C1526   1.407       .  A
C1525      C1530   1.411       .  A
C1525      H1532   1.083       .  S
C1526      C1527   1.406       .  A
C1527      C1528   1.394       .  A
C1527     Br1534   1.922       .  S
C1528      C1529   1.406       .  A
C1528      H1533   1.080       .  S
C1529      C1530   1.414       .  A
C1530     Br1531   1.916       .  S
C1535      C1536   1.404       .  A
C1535      C1540   1.388       .  A
C1535      H1542   1.083       .  S
C1536      C1537   1.413       .  A
C1537      C1538   1.395       .  A
C1537     Br1544   1.912       .  S
C1538      C1539   1.397       .  A
C1538      H1543   1.084       .  S
C1539      C1540   1.407       .  A
C1540     Br1541   1.921       .  S
C1545      C1546   1.401       .  A
C1545      C1550   1.396       .  A
C1545      H1552   1.084       .  S
C1546      C1547   1.416       .  A
C1547      C1548   1.410       .  A
C1547     Br1554   1.918       .  S
C1548      C1549   1.404       .  A
C1548      H1553   1.083   1_554  S
C1549      C1550   1.412       .  A
C1550     Br1551   1.919       .  S
C1555      C1556   1.398       .  A
C1555      C1560   1.402       .  A
C1555      H1562   1.084   1_455  S
C1556      C1557   1.414       .  A
C1557      C1558   1.410       .  A
C1557     Br1564   1.918       .  S
C1558      C1559   1.405       .  A
C1558      H1563   1.083       .  S
C1559      C1560   1.418       .  A
C1560     Br1561   1.918   1_455  S
C1565      C1566   1.401       .  A
C1565      C1570   1.393       .  A
C1565      H1572   1.082       .  S
C1566      C1567   1.415       .  A
C1567      C1568   1.406       .  A
C1567     Br1574   1.917       .  S
C1568      C1569   1.401       .  A
C1568      H1573   1.084       .  S
C1569      C1570   1.409       .  A
C1570     Br1571   1.921   1_455  S
C1575      C1576   1.403       .  A
C1575      C1580   1.395       .  A
C1575      H1582   1.084       .  S
C1576      C1577   1.424       .  A
C1577      C1578   1.405       .  A
C1577     Br1584   1.921       .  S
C1578      C1579   1.404       .  A
C1578      H1583   1.083       .  S
C1579      C1580   1.423       .  A
C1580     Br1581   1.925       .  S
C1585      C1586   1.397       .  A
C1585      C1590   1.395       .  A
C1585      H1592   1.084       .  S
C1586      C1587   1.397   1_565  A
C1587      C1588   1.386       .  A
C1587     Br1594   1.923       .  S
C1588      C1589   1.413   1_545  A
C1588      H1593   1.081       .  S
C1589      C1590   1.415       .  A
C1590     Br1591   1.918       .  S
C1595      C1596   1.402   1_565  A
C1595      C1600   1.397       .  A
C1595      H1602   1.084       .  S
C1596      C1597   1.401       .  A
C1597      C1598   1.386       .  A
C1597     Br1604   1.919       .  S
C1598      C1599   1.400       .  A
C1598      H1603   1.082       .  S
C1599      C1600   1.405   1_545  A
C1600     Br1601   1.918       .  S
C1605      C1606   1.397       .  A
C1605      C1610   1.389       .  A
C1605      H1612   1.082       .  S
C1606      C1607   1.402       .  A
C1607      C1608   1.389       .  A
C1607     Br1614   1.920       .  S
C1608      C1609   1.405       .  A
C1608      H1613   1.084       .  S
C1609      C1610   1.409       .  A
C1610     Br1611   1.919       .  S
C1615      C1616   1.405       .  A
C1615      C1620   1.409       .  A
C1615      H1622   1.083       .  S
C1616      C1617   1.411       .  A
C1617      C1618   1.404       .  A
C1617     Br1624   1.919       .  S
C1618      C1619   1.405       .  A
C1618      H1623   1.083       .  S
C1619      C1620   1.416       .  A
C1620     Br1621   1.920       .  S
C1625      C1626   1.402       .  A
C1625      C1630   1.412       .  A
C1625      H1632   1.083       .  S
C1626      C1627   1.410       .  A
C1627      C1628   1.404       .  A
C1627     Br1634   1.921       .  S
C1628      C1629   1.414       .  A
C1628      H1633   1.075       .  S
C1629      C1630   1.427       .  A
C1630     Br1631   1.917       .  S
C1635      C1636   1.402   1_655  A
C1635      C1640   1.412       .  A
C1635      H1642   1.084       .  S
C1636      C1637   1.412       .  A
C1637      C1638   1.411       .  A
C1637     Br1644   1.920       .  S
C1638      C1639   1.417       .  A
C1638      H1643   1.081       .  S
C1639      C1640   1.433   1_455  A
C1640     Br1641   1.918       .  S
C1645      C1646   1.413       .  A
C1645      C1650   1.409       .  A
C1645      H1652   1.083       .  S
C1646      C1647   1.421   1_455  A
C1647      C1648   1.402       .  A
C1647     Br1654   1.918       .  S
C1648      C1649   1.407   1_655  A
C1648      H1653   1.083       .  S
C1649      C1650   1.415       .  A
C1650     Br1651   1.919       .  S
C1655      C1656   1.426       .  A
C1655      C1660   1.416       .  A
C1655      H1662   1.076       .  S
C1656      C1657   1.417       .  A
C1657      C1658   1.400       .  A
C1657     Br1664   1.925       .  S
C1658      C1659   1.407       .  A
C1658      H1663   1.079       .  S
C1659      C1660   1.405       .  A
C1660     Br1661   1.916       .  S
C1665      C1666   1.414       .  A
C1665      C1670   1.415       .  A
C1665      H1672   1.083       .  S
C1666      C1667   1.405       .  A
C1667      C1668   1.404       .  A
C1667     Br1674   1.917       .  S
C1668      C1669   1.414       .  A
C1668      H1673   1.082       .  S
C1669      C1670   1.413       .  A
C1670     Br1671   1.916       .  S
C1675      C1676   1.414       .  A
C1675      C1680   1.422       .  A
C1675      H1682   1.083       .  S
C1676      C1677   1.406       .  A
C1677      C1678   1.400       .  A
C1677     Br1684   1.921       .  S
C1678      C1679   1.415       .  A
C1678      H1683   1.083       .  S
C1679      C1680   1.420       .  A
C1680     Br1681   1.918       .  S
C1685      C1686   1.402       .  A
C1685      C1690   1.405       .  A
C1685      H1692   1.084       .  S
C1686      C1687   1.409       .  A
C1687      C1688   1.407       .  A
C1687     Br1694   1.915       .  S
C1688      C1689   1.409       .  A
C1688      H1693   1.083       .  S
C1689      C1690   1.419       .  A
C1690     Br1691   1.921       .  S
C1695      C1696   1.417       .  A
C1695      C1700   1.400       .  A
C1695      H1702   1.082       .  S
C1696      C1697   1.414       .  A
C1697      C1698   1.410       .  A
C1697     Br1704   1.916       .  S
C1698      C1699   1.412       .  A
C1698      H1703   1.084       .  S
C1699      C1700   1.404       .  A
C1700     Br1701   1.915       .  S
C1705      C1706   1.412       .  A
C1705      C1710   1.410       .  A
C1705      H1712   1.083       .  S
C1706      C1707   1.407       .  A
C1707      C1708   1.402       .  A
C1707     Br1714   1.919       .  S
C1708      C1709   1.413       .  A
C1708      H1713   1.083       .  S
C1709      C1710   1.414       .  A
C1710     Br1711   1.918       .  S
C1715      C1716   1.410       .  A
C1715      C1720   1.413       .  A
C1715      H1722   1.083       .  S
C1716      C1717   1.409       .  A
C1717      C1718   1.408       .  A
C1717     Br1724   1.912       .  S
C1718      C1719   1.409       .  A
C1718      H1723   1.084       .  S
C1719      C1720   1.413       .  A
C1720     Br1721   1.918       .  S
C1725      C1726   1.409       .  A
C1725      C1730   1.399       .  A
C1725      H1732   1.077       .  S
C1726      C1727   1.427   1_556  A
C1727      C1728   1.407       .  A
C1727     Br1734   1.921       .  S
C1728      C1729   1.398   1_554  A
C1728      H1733   1.080       .  S
C1729      C1730   1.412       .  A
C1730     Br1731   1.921       .  S
C1735      C1736   1.405       .  A
C1735      C1740   1.401       .  A
C1735      H1742   1.083       .  S
C1736      C1737   1.419       .  A
C1737      C1738   1.400       .  A
C1737     Br1744   1.920   1_556  S
C1738      C1739   1.399       .  A
C1738      H1743   1.084   1_565  S
C1739      C1740   1.411       .  A
C1740     Br1741   1.920       .  S
C1745      C1746   1.410       .  A
C1745      C1750   1.403       .  A
C1745      H1752   1.083       .  S
C1746      C1747   1.421       .  A
C1747      C1748   1.415       .  A
C1747     Br1754   1.920       .  S
C1748      C1749   1.408       .  A
C1748      H1753   1.083       .  S
C1749      C1750   1.413       .  A
C1750     Br1751   1.919       .  S
C1755      C1756   1.399       .  A
C1755      C1760   1.392       .  A
C1755      H1762   1.084       .  S
C1756      C1757   1.403       .  A
C1757      C1758   1.395       .  A
C1757     Br1764   1.917       .  S
C1758      C1759   1.405       .  A
C1758      H1763   1.084       .  S
C1759      C1760   1.408       .  A
C1760     Br1761   1.920       .  S
C1765      C1766   1.401       .  A
C1765      C1770   1.387       .  A
C1765      H1772   1.085       .  S
C1766      C1767   1.405       .  A
C1767      C1768   1.406       .  A
C1767     Br1774   1.917       .  S
C1768      C1769   1.410       .  A
C1768      H1773   1.083       .  S
C1769      C1770   1.409       .  A
C1770     Br1771   1.924       .  S
C1775      C1776   1.401       .  A
C1775      C1780   1.408       .  A
C1775      H1782   1.084       .  S
C1776      C1777   1.408       .  A
C1777      C1778   1.411       .  A
C1777     Br1784   1.917       .  S
C1778      C1779   1.415       .  A
C1778      H1783   1.082       .  S
C1779      C1780   1.427       .  A
C1780     Br1781   1.918       .  S
C1785      C1786   1.409       .  A
C1785      C1790   1.403       .  A
C1785      H1792   1.083       .  S
C1786      C1787   1.416       .  A
C1787      C1788   1.412       .  A
C1787     Br1794   1.917       .  S
C1788      C1789   1.410       .  A
C1788      H1793   1.083       .  S
C1789      C1790   1.416       .  A
C1790     Br1791   1.922       .  S
C1795      C1796   1.412       .  A
C1795      C1800   1.412       .  A
C1795      H1802   1.083       .  S
C1796      C1797   1.406       .  A
C1797      C1798   1.393       .  A
C1797     Br1804   1.915   1_655  S
C1798      C1799   1.407       .  A
C1798      H1803   1.083   1_655  S
C1799      C1800   1.411       .  A
C1800     Br1801   1.917       .  S
C1805      C1806   1.404       .  A
C1805      C1810   1.408       .  A
C1805      H1812   1.083       .  S
C1806      C1807   1.422       .  A
C1807      C1808   1.409       .  A
C1807     Br1814   1.919       .  S
C1808      C1809   1.402       .  A
C1808      H1813   1.084       .  S
C1809      C1810   1.415       .  A
C1810     Br1811   1.914       .  S
C1815      C1816   1.421       .  A
C1815      C1820   1.410       .  A
C1815      H1822   1.075       .  S
C1816      C1817   1.421       .  A
C1817      C1818   1.394       .  A
C1817     Br1824   1.921       .  S
C1818      C1819   1.398       .  A
C1818      H1823   1.082       .  S
C1819      C1820   1.404       .  A
C1820     Br1821   1.917       .  S
C1825      C1826   1.413       .  A
C1825      C1830   1.409       .  A
C1825      H1832   1.083       .  S
C1826      C1827   1.413       .  A
C1827      C1828   1.410       .  A
C1827     Br1834   1.915       .  S
C1828      C1829   1.408       .  A
C1828      H1833   1.083       .  S
C1829      C1830   1.408       .  A
C1830     Br1831   1.918       .  S
C1835      C1836   1.408       .  A
C1835      C1840   1.407       .  A
C1835      H1842   1.083       .  S
C1836      C1837   1.416       .  A
C1837      C1838   1.420       .  A
C1837     Br1844   1.915       .  S
C1838      C1839   1.416       .  A
C1838      H1843   1.083       .  S
C1839      C1840   1.421       .  A
C1840     Br1841   1.923       .  S
C1845      C1846   1.401       .  A
C1845      C1850   1.394       .  A
C1845      H1852   1.084       .  S
C1846      C1847   1.402       .  A
C1847      C1848   1.390       .  A
C1847     Br1854   1.915       .  S
C1848      C1849   1.405       .  A
C1848      H1853   1.084       .  S
C1849      C1850   1.410       .  A
C1850     Br1851   1.919       .  S
C1855      C1856   1.406       .  A
C1855      C1860   1.390       .  A
C1855      H1862   1.074       .  S
C1856      C1857   1.418       .  A
C1857      C1858   1.389       .  A
C1857     Br1864   1.923       .  S
C1858      C1859   1.400       .  A
C1858      H1863   1.083       .  S
C1859      C1860   1.412       .  A
C1860     Br1861   1.924       .  S
C1865      C1866   1.403       .  A
C1865      C1870   1.390       .  A
C1865      H1872   1.084       .  S
C1866      C1867   1.417       .  A
C1867      C1868   1.398       .  A
C1867     Br1874   1.919       .  S
C1868      C1869   1.399       .  A
C1868      H1873   1.084       .  S
C1869      C1870   1.409       .  A
C1870     Br1871   1.917       .  S
C1875      C1876   1.406       .  A
C1875      C1880   1.415       .  A
C1875      H1882   1.083       .  S
C1876      C1877   1.420       .  A
C1877      C1878   1.400       .  A
C1877     Br1884   1.923       .  S
C1878      C1879   1.398       .  A
C1878      H1883   1.084       .  S
C1879      C1880   1.417       .  A
C1880     Br1881   1.916       .  S
C1885      C1886   1.417       .  A
C1885      C1890   1.401       .  A
C1885      H1892   1.081       .  S
C1886      C1887   1.418       .  A
C1887      C1888   1.406       .  A
C1887     Br1894   1.921       .  S
C1888      C1889   1.406       .  A
C1888      H1893   1.084       .  S
C1889      C1890   1.403       .  A
C1890     Br1891   1.919       .  S
C1895      C1896   1.412       .  A
C1895      C1900   1.411       .  A
C1895      H1902   1.083       .  S
C1896      C1897   1.412       .  A
C1897      C1898   1.401       .  A
C1897     Br1904   1.915       .  S
C1898      C1899   1.409       .  A
C1898      H1903   1.083       .  S
C1899      C1900   1.417       .  A
C1900     Br1901   1.921       .  S
C1905      C1906   1.400       .  A
C1905      C1910   1.391       .  A
C1905      H1912   1.084       .  S
C1906      C1907   1.406       .  A
C1907      C1908   1.396       .  A
C1907     Br1914   1.918       .  S
C1908      C1909   1.409       .  A
C1908      H1913   1.083       .  S
C1909      C1910   1.416       .  A
C1910     Br1911   1.921       .  S
C1915      C1916   1.400       .  A
C1915      C1920   1.390       .  A
C1915      H1922   1.083       .  S
C1916      C1917   1.411       .  A
C1917      C1918   1.395       .  A
C1917     Br1924   1.920       .  S
C1918      C1919   1.398       .  A
C1918      H1923   1.084       .  S
C1919      C1920   1.406       .  A
C1920     Br1921   1.920       .  S
C1925      C1926   1.411       .  A
C1925      C1930   1.386       .  A
C1925      H1932   1.073       .  S
C1926      C1927   1.422       .  A
C1927      C1928   1.391       .  A
C1927     Br1934   1.922       .  S
C1928      C1929   1.391       .  A
C1928      H1933   1.084       .  S
C1929      C1930   1.400       .  A
C1930     Br1931   1.924       .  S
C1935      C1936   1.397       .  A
C1935      C1940   1.389       .  A
C1935      H1942   1.083       .  S
C1936      C1937   1.403       .  A
C1937      C1938   1.388       .  A
C1937     Br1944   1.918       .  S
C1938      C1939   1.407       .  A
C1938      H1943   1.083       .  S
C1939      C1940   1.418       .  A
C1940     Br1941   1.926       .  S
C1945      C1946   1.403       .  A
C1945      C1950   1.408       .  A
C1945      H1952   1.083       .  S
C1946      C1947   1.413       .  A
C1947      C1948   1.408       .  A
C1947     Br1954   1.915       .  S
C1948      C1949   1.405       .  A
C1948      H1953   1.083       .  S
C1949      C1950   1.415       .  A
C1950     Br1951   1.917       .  S
C1955      C1956   1.415   1_554  A
C1955      C1960   1.401       .  A
C1955      H1962   1.076       .  S
C1956      C1957   1.426       .  A
C1957      C1958   1.413       .  A
C1957     Br1964   1.922       .  S
C1958      C1959   1.404       .  A
C1958      H1963   1.083       .  S
C1959      C1960   1.408   1_556  A
C1960     Br1961   1.922       .  S
C1965      C1966   1.401       .  A
C1965      C1970   1.394       .  A
C1965      H1972   1.079       .  S
C1966      C1967   1.420       .  A
C1967      C1968   1.410       .  A
C1967     Br1974   1.920   1_556  S
C1968      C1969   1.409       .  A
C1968      H1973   1.083   1_556  S
C1969      C1970   1.419       .  A
C1970     Br1971   1.922       .  S
C1975      C1976   1.400       .  A
C1975      C1980   1.395       .  A
C1975      H1982   1.083       .  S
C1976      C1977   1.407       .  A
C1977      C1978   1.387       .  A
C1977     Br1984   1.925       .  S
C1978      C1979   1.407       .  A
C1978      H1983   1.083       .  S
C1979      C1980   1.418       .  A
C1980     Br1981   1.923       .  S
C1985      C1986   1.400       .  A
C1985      C1990   1.398       .  A
C1985      H1992   1.084       .  S
C1986      C1987   1.397       .  A
C1987      C1988   1.385       .  A
C1987     Br1994   1.917       .  S
C1988      C1989   1.410       .  A
C1988      H1993   1.083       .  S
C1989      C1990   1.414       .  A
C1990     Br1991   1.921       .  S
C1995      C1996   1.403       .  A
C1995      C2000   1.390       .  A
C1995      H2002   1.083       .  S
C1996      C1997   1.407   1_545  A
C1997      C1998   1.392       .  A
C1997     Br2004   1.912       .  S
C1998      C1999   1.397       .  A
C1998      H2003   1.084       .  S
C1999      C2000   1.401   1_565  A
C2000     Br2001   1.919       .  S
C2005      C2006   1.407       .  A
C2005      C2010   1.386       .  A
C2005      H2012   1.078       .  S
C2006      C2007   1.413       .  A
C2007      C2008   1.387       .  A
C2007     Br2014   1.925       .  S
C2008      C2009   1.402       .  A
C2008      H2013   1.084       .  S
C2009      C2010   1.402       .  A
C2010     Br2011   1.920   1_455  S
C2015      C2016   1.406       .  A
C2015      C2020   1.406       .  A
C2015      H2022   1.083       .  S
C2016      C2017   1.416       .  A
C2017      C2018   1.414       .  A
C2017     Br2024   1.917       .  S
C2018      C2019   1.407       .  A
C2018      H2023   1.083       .  S
C2019      C2020   1.414       .  A
C2020     Br2021   1.921       .  S
C2025      C2026   1.403       .  A
C2025      C2030   1.405       .  A
C2025      H2032   1.083       .  S
C2026      C2027   1.419       .  A
C2027      C2028   1.398       .  A
C2027     Br2034   1.920       .  S
C2028      C2029   1.396       .  A
C2028      H2033   1.084       .  S
C2029      C2030   1.417       .  A
C2030     Br2031   1.921       .  S
C2035      C2036   1.406       .  A
C2035      C2040   1.407       .  A
C2035      H2042   1.084       .  S
C2036      C2037   1.410       .  A
C2037      C2038   1.405       .  A
C2037     Br2044   1.913       .  S
C2038      C2039   1.407       .  A
C2038      H2043   1.084       .  S
C2039      C2040   1.412       .  A
C2040     Br2041   1.916       .  S
C2045      C2046   1.414       .  A
C2045      C2050   1.422       .  A
C2045      H2052   1.083       .  S
C2046      C2047   1.414   1_554  A
C2047      C2048   1.405       .  A
C2047     Br2054   1.922       .  S
C2048      C2049   1.411   1_556  A
C2048      H2053   1.083       .  S
C2049      C2050   1.419       .  A
C2050     Br2051   1.917       .  S
C2055      C2056   1.411       .  A
C2055      C2060   1.398       .  A
C2055      H2062   1.078       .  S
C2056      C2057   1.425   1_556  A
C2057      C2058   1.409       .  A
C2057     Br2064   1.922       .  S
C2058      C2059   1.402   1_554  A
C2058      H2063   1.083       .  S
C2059      C2060   1.411       .  A
C2060     Br2061   1.922       .  S
C2065      C2066   1.410       .  A
C2065      C2070   1.397       .  A
C2065      H2072   1.084       .  S
C2066      C2067   1.411       .  A
C2067      C2068   1.404       .  A
C2067     Br2074   1.916       .  S
C2068      C2069   1.406       .  A
C2068      H2073   1.084       .  S
C2069      C2070   1.405       .  A
C2070     Br2071   1.919       .  S
C2075      C2076   1.407       .  A
C2075      C2080   1.395       .  A
C2075      H2082   1.083       .  S
C2076      C2077   1.416       .  A
C2077      C2078   1.396       .  A
C2077     Br2084   1.923       .  S
C2078      C2079   1.398       .  A
C2078      H2083   1.084       .  S
C2079      C2080   1.406       .  A
C2080     Br2081   1.921       .  S
C2085      C2086   1.407       .  A
C2085      C2090   1.413       .  A
C2085      H2092   1.083       .  S
C2086      C2087   1.407       .  A
C2087      C2088   1.407       .  A
C2087     Br2094   1.921       .  S
C2088      C2089   1.419       .  A
C2088      H2093   1.081       .  S
C2089      C2090   1.422       .  A
C2090     Br2091   1.922       .  S
C2095      C2096   1.411       .  A
C2095      C2100   1.393       .  A
C2095      H2102   1.083       .  S
C2096      C2097   1.418       .  A
C2097      C2098   1.397       .  A
C2097     Br2104   1.923       .  S
C2098      C2099   1.399       .  A
C2098      H2103   1.082       .  S
C2099      C2100   1.399       .  A
C2100     Br2101   1.919       .  S
C2105      C2106   1.407       .  A
C2105      C2110   1.422       .  A
C2105      H2112   1.083       .  S
C2106      C2107   1.413       .  A
C2107      C2108   1.404       .  A
C2107     Br2114   1.920       .  S
C2108      C2109   1.411       .  A
C2108      H2113   1.077       .  S
C2109      C2110   1.428       .  A
C2110     Br2111   1.919       .  S
C2115      C2116   1.406       .  A
C2115      C2120   1.412       .  A
C2115      H2122   1.083       .  S
C2116      C2117   1.423       .  A
C2117      C2118   1.400       .  A
C2117     Br2124   1.922       .  S
C2118      C2119   1.398       .  A
C2118      H2123   1.084       .  S
C2119      C2120   1.412       .  A
C2120     Br2121   1.915   1_565  S
C2125      C2126   1.414       .  A
C2125      C2130   1.415       .  A
C2125      H2132   1.083       .  S
C2126      C2127   1.415       .  A
C2127      C2128   1.417       .  A
C2127     Br2134   1.917       .  S
C2128      C2129   1.416       .  A
C2128      H2133   1.083       .  S
C2129      C2130   1.415       .  A
C2130     Br2131   1.917       .  S
C2135      C2136   1.406       .  A
C2135      C2140   1.401       .  A
C2135      H2142   1.083       .  S
C2136      C2137   1.429       .  A
C2137      C2138   1.411       .  A
C2137     Br2144   1.913       .  S
C2138      C2139   1.401       .  A
C2138      H2143   1.084       .  S
C2139      C2140   1.414       .  A
C2140     Br2141   1.917       .  S
C2145      C2146   1.413       .  A
C2145      C2150   1.394       .  A
C2145      H2152   1.073       .  S
C2146      C2147   1.419       .  A
C2147      C2148   1.392       .  A
C2147     Br2154   1.918       .  S
C2148      C2149   1.399       .  A
C2148      H2153   1.084       .  S
C2149      C2150   1.407       .  A
C2150     Br2151   1.924       .  S
C2155      C2156   1.408       .  A
C2155      C2160   1.400       .  A
C2155      H2162   1.083       .  S
C2156      C2157   1.413       .  A
C2157      C2158   1.395       .  A
C2157     Br2164   1.912       .  S
C2158      C2159   1.398       .  A
C2158      H2163   1.084       .  S
C2159      C2160   1.404       .  A
C2160     Br2161   1.917       .  S
C2165      C2166   1.402       .  A
C2165      C2170   1.388       .  A
C2165      H2172   1.083       .  S
C2166      C2167   1.416       .  A
C2167      C2168   1.406       .  A
C2167     Br2174   1.919       .  S
C2168      C2169   1.406       .  A
C2168      H2173   1.084       .  S
C2169      C2170   1.409       .  A
C2170     Br2171   1.913       .  S
C2175      C2176   1.404       .  A
C2175      C2180   1.400       .  A
C2175      H2182   1.084       .  S
C2176      C2177   1.403       .  A
C2177      C2178   1.394       .  A
C2177     Br2184   1.921       .  S
C2178      C2179   1.414       .  A
C2178      H2183   1.083       .  S
C2179      C2180   1.416       .  A
C2180     Br2181   1.922       .  S
C2185      C2186   1.412       .  A
C2185      C2190   1.416       .  A
C2185      H2192   1.083       .  S
C2186      C2187   1.419       .  A
C2187      C2188   1.410       .  A
C2187     Br2194   1.918       .  S
C2188      C2189   1.404       .  A
C2188      H2193   1.083       .  S
C2189      C2190   1.414       .  A
C2190     Br2191   1.917       .  S
C2195      C2196   1.400       .  A
C2195      C2200   1.400       .  A
C2195      H2202   1.083       .  S
C2196      C2197   1.409       .  A
C2197      C2198   1.400       .  A
C2197     Br2204   1.921       .  S
C2198      C2199   1.404       .  A
C2198      H2203   1.084       .  S
C2199      C2200   1.408       .  A
C2200     Br2201   1.917       .  S
C2205      C2206   1.410       .  A
C2205      C2210   1.414       .  A
C2205      H2212   1.083       .  S
C2206      C2207   1.414       .  A
C2207      C2208   1.407       .  A
C2207     Br2214   1.918       .  S
C2208      C2209   1.405       .  A
C2208      H2213   1.081       .  S
C2209      C2210   1.411       .  A
C2210     Br2211   1.916       .  S
C2215      C2216   1.409       .  A
C2215      C2220   1.392       .  A
C2215      H2222   1.075       .  S
C2216      C2217   1.421       .  A
C2217      C2218   1.385       .  A
C2217     Br2224   1.927       .  S
C2218      C2219   1.394       .  A
C2218      H2223   1.084       .  S
C2219      C2220   1.407       .  A
C2220     Br2221   1.922       .  S
C2225      C2226   1.404   1_565  A
C2225      C2230   1.400       .  A
C2225      H2232   1.083       .  S
C2226      C2227   1.415       .  A
C2227      C2228   1.391       .  A
C2227     Br2234   1.924       .  S
C2228      C2229   1.395   1_545  A
C2228      H2233   1.083       .  S
C2229      C2230   1.404       .  A
C2230     Br2231   1.917       .  S
C2235      C2236   1.402       .  A
C2235      C2240   1.403       .  A
C2235      H2242   1.084       .  S
C2236      C2237   1.406       .  A
C2237      C2238   1.397       .  A
C2237     Br2244   1.916       .  S
C2238      C2239   1.406       .  A
C2238      H2243   1.084       .  S
C2239      C2240   1.413       .  A
C2240     Br2241   1.914       .  S
C2245      C2246   1.402       .  A
C2245      C2250   1.400       .  A
C2245      H2252   1.083       .  S
C2246      C2247   1.412       .  A
C2247      C2248   1.395       .  A
C2247     Br2254   1.917       .  S
C2248      C2249   1.396       .  A
C2248      H2253   1.084       .  S
C2249      C2250   1.410       .  A
C2250     Br2251   1.919       .  S
C2255      C2256   1.402       .  A
C2255      C2260   1.412       .  A
C2255      H2262   1.083       .  S
C2256      C2257   1.403       .  A
C2257      C2258   1.403       .  A
C2257     Br2264   1.922       .  S
C2258      C2259   1.421       .  A
C2258      H2263   1.073       .  S
C2259      C2260   1.425       .  A
C2260     Br2261   1.920       .  S
C2265      C2266   1.413       .  A
C2265      C2270   1.403       .  A
C2265      H2272   1.083       .  S
C2266      C2267   1.419       .  A
C2267      C2268   1.407       .  A
C2267     Br2274   1.920       .  S
C2268      C2269   1.405       .  A
C2268      H2273   1.084       .  S
C2269      C2270   1.409       .  A
C2270     Br2271   1.920       .  S
C2275      C2276   1.399       .  A
C2275      C2280   1.394       .  A
C2275      H2282   1.084       .  S
C2276      C2277   1.408       .  A
C2277      C2278   1.399       .  A
C2277     Br2284   1.918       .  S
C2278      C2279   1.400       .  A
C2278      H2283   1.084       .  S
C2279      C2280   1.410       .  A
C2280     Br2281   1.921       .  S
C2285      C2286   1.399       .  A
C2285      C2290   1.406       .  A
C2285      H2292   1.083       .  S
C2286      C2287   1.418       .  A
C2287      C2288   1.407       .  A
C2287     Br2294   1.918       .  S
C2288      C2289   1.401       .  A
C2288      H2293   1.083       .  S
C2289      C2290   1.424       .  A
C2290     Br2291   1.923       .  S
C2295      C2296   1.401       .  A
C2295      C2300   1.405       .  A
C2295      H2302   1.084       .  S
C2296      C2297   1.408       .  A
C2297      C2298   1.397       .  A
C2297     Br2304   1.922       .  S
C2298      C2299   1.411       .  A
C2298      H2303   1.077       .  S
C2299      C2300   1.425       .  A
C2300     Br2301   1.923       .  S
