geometry optimzed in LAMMPS
_audit_creation_date              2020-11-30 
_audit_creation_method            'lammps2cif' 
_symmetry_space_group_name_H-M    'P1' 
_symmetry_Int_Tables_number       1 
_symmetry_cell_setting            triclinic 
loop_ 
_symmetry_equiv_pos_as_xyz 
  x,y,z 
_cell_length_a                    38.07745297 
_cell_length_b                    38.010432571181916 
_cell_length_c                    37.89780167865135 
_cell_angle_alpha                 89.19431373685238 
_cell_angle_beta                  89.99524356970197 
_cell_angle_gamma                 90.09341637775334 
loop_ 
_atom_site_label 
_atom_site_type_symbol 
_atom_site_fract_x 
_atom_site_fract_y 
_atom_site_fract_z 
_atom_site_charge 
O1          O  0.74863637  0.81212111  0.71933110    -0.87400
C2          C  0.66216046  0.75120529  0.73621883     0.88600
Mg3        Mg  0.79092332  0.79468104  0.68658609     1.58100
O4          O  0.71975384  0.75481553  0.80773883    -0.87100
O5          O  0.73890758  0.82858552  0.77379779    -0.74400
C6          C  0.82090004  0.62751634  0.73604996     0.93700
O7          O  0.71172859  0.75863230  0.66684756    -0.74300
O8          O  0.82473642  0.64900757  0.71033698    -0.81800
Mg9        Mg  0.69731335  0.80874933  0.69718832     1.58000
C10         C  0.74903291  0.66488642  0.86352936     0.93600
O11         O  0.68046009  0.86126118  0.72328994    -0.80000
H12         H  0.74831608  0.78210882  0.84223534    -0.05400
C13         C  0.72785503  0.66980814  0.74410329     0.88600
O14         O  0.82083709  0.77549237  0.73617266    -0.74500
O15         O  0.68138500  0.77690141  0.74173019    -0.87300
O16         O  0.72243629  0.68443824  0.85692762    -0.80100
C17         C  0.62739792  0.74797570  0.83166167     0.93700
C18         C  0.66370222  0.87076531  0.75072336     0.93600
Mg19       Mg  0.78798558  0.68937908  0.79163613     1.58000
O20         O  0.80553004  0.63649555  0.76463764    -0.80000
O21         O  0.77384264  0.74009337  0.82186566    -0.74300
O22         O  0.63598445  0.77482992  0.81287952    -0.80100
O23         O  0.71327150  0.84045622  0.64875754    -0.81800
O24         O  0.84951136  0.72348763  0.67685866    -0.80100
C25         C  0.74702546  0.75989111  0.82477872     0.88000
O26         O  0.80398413  0.72114000  0.74753582    -0.87300
O27         O  0.73632045  0.68681388  0.77046313    -0.87400
O28         O  0.74499290  0.67185676  0.71524754    -0.74500
Mg29       Mg  0.68849072  0.79991201  0.79222864     1.58000
O30         O  0.64862888  0.72274955  0.83755802    -0.81800
H31         H  0.77906401  0.84726307  0.74359354    -0.05600
O32         O  0.76578168  0.74497451  0.68185898    -0.87100
H33         H  0.73866619  0.71769674  0.64623705    -0.05400
H34         H  0.84083657  0.74534034  0.77595690    -0.05600
C35         C  0.73908072  0.73966993  0.66404152     0.88000
C36         C  0.75635183  0.83020810  0.74514737     0.88600
C37         C  0.82281643  0.74688443  0.75394997     0.88600
H38         H  0.70468053  0.65336424  0.74536244    -0.05500
O39         O  0.66382374  0.72312972  0.75495628    -0.74600
Mg40       Mg  0.79603475  0.69942648  0.69662066     1.58000
H41         H  0.64387645  0.75238358  0.71441176    -0.05500
C42         C  0.73814835  0.83595001  0.62690928     0.93600
O43         O  0.83736069  0.77671273  0.65452359    -0.81800
C44         C  0.85832973  0.75105364  0.65934028     0.93700
O45         O  0.65801884  0.84961998  0.77648894    -0.81800
Mg46       Mg  0.69475704  0.70480330  0.80451096     1.58200
O47         O  0.76497077  0.81708002  0.63455248    -0.80100
O48         O  0.77187922  0.65814345  0.84008555    -0.81800
C49         C  0.65445549  0.03562044  0.74711141     0.87400
C50         C  0.63086415  0.03006144  0.77930521    -0.52800
C51         C  0.60997388  0.00079298  0.77806142     0.10400
C52         C  0.61320044  0.98094565  0.74272053     0.21300
C53         C  0.67427949  0.00045164  0.74308728    -0.53500
C54         C  0.65258232  0.97162353  0.74096661     0.10500
C55         C  0.62984677  0.03703531  0.71550923    -0.53000
C56         C  0.60813634  0.00870806  0.71253133     0.11000
H57         H  0.63195584  0.04736969  0.80182063     0.15600
H58         H  0.59545826  0.95786073  0.74064176     0.01300
H59         H  0.70271401  0.99851342  0.74226485     0.15900
H60         H  0.63197389  0.05770122  0.69557631     0.15700
O61         O  0.79328644  0.29428880  0.77565116    -0.87400
C62         C  0.80909616  0.26787927  0.67369272     0.88600
Mg63       Mg  0.78827643  0.25480863  0.81677912     1.58100
O64         O  0.72488613  0.29692810  0.69228334    -0.87100
O65         O  0.76308824  0.33841693  0.75254663    -0.74400
C66         C  0.68207463  0.13382857  0.75030017     0.93700
O67         O  0.83839370  0.22904025  0.74445734    -0.74300
O68         O  0.70985430  0.13503167  0.76887651    -0.81800
Mg69       Mg  0.83844923  0.28910226  0.74109560     1.58000
C70         C  0.63545151  0.24574231  0.66029679     0.93600
O71         O  0.84549063  0.34916087  0.73678631    -0.80000
H72         H  0.69328358  0.33238919  0.71429083    -0.05400
C73         C  0.73981244  0.19185777  0.68745495     0.88600
O74         O  0.72853627  0.25588163  0.81383666    -0.74500
O75         O  0.80265044  0.28866933  0.69781259    -0.87300
O76         O  0.66250391  0.26085922  0.64671511    -0.80100
C77         C  0.76139077  0.31441991  0.60480395     0.93700
C78         C  0.83676942  0.37650192  0.71898488     0.93600
Mg79       Mg  0.67833317  0.22125315  0.72966998     1.58000
O80         O  0.67004882  0.16082875  0.73389894    -0.80000
O81         O  0.68116103  0.28182150  0.72723621    -0.74300
O82         O  0.77702774  0.32749230  0.63145449    -0.80100
O83         O  0.87764793  0.28666303  0.78652050    -0.81800
O84         O  0.74989339  0.17247448  0.83336030    -0.80100
C85         C  0.69947494  0.30488764  0.71092322     0.88000
O86         O  0.71475720  0.21971754  0.77160244    -0.87300
O87         O  0.72032599  0.21742266  0.69209422    -0.87400
O88         O  0.75498705  0.17588464  0.71287208    -0.74500
Mg89       Mg  0.76836838  0.33328995  0.69207933     1.58000
O90         O  0.73146862  0.29964202  0.60806049    -0.81800
H91         H  0.76979400  0.33054023  0.80525158    -0.05600
O92         O  0.79243575  0.21520151  0.77633799    -0.87100
H93         H  0.82652331  0.17910800  0.75973614    -0.05400
H94         H  0.67849939  0.24242023  0.80178567    -0.05600
C95         C  0.81954254  0.20662905  0.76077548     0.88000
C96         C  0.77559291  0.32145622  0.77898355     0.88600
C97         C  0.70610328  0.23878723  0.79625743     0.88600
H98         H  0.74531632  0.18381734  0.66077116    -0.05500
O99         O  0.78488376  0.25378325  0.65534807    -0.74600
Mg100      Mg  0.75179863  0.17713776  0.77323563     1.58000
H101        H  0.83611897  0.26106397  0.66838441    -0.05500
C102        C  0.87605660  0.26929413  0.81548774     0.93600
O103        O  0.78090705  0.21368059  0.86103053    -0.81800
C104        C  0.76274922  0.18544456  0.86134775     0.93700
O105        O  0.81237694  0.37557184  0.69589287    -0.81800
Mg106      Mg  0.72412583  0.25790440  0.65224439     1.58200
O107        O  0.84762794  0.25552032  0.82681372    -0.80100
O108        O  0.63763089  0.22525737  0.68704629    -0.81800
C109        C  0.90931041  0.50163200  0.77486300     0.87400
C110        C  0.88888317  0.46864265  0.76494702    -0.52800
C111        C  0.86592679  0.47305205  0.73745824     0.10400
C112        C  0.86483492  0.51171802  0.72330085     0.21300
C113        C  0.92663081  0.51426044  0.74022776    -0.53500
C114        C  0.90347606  0.51977808  0.71294828     0.10500
C115        C  0.88136898  0.52936818  0.78257424    -0.53000
C116        C  0.85831507  0.53528631  0.75579362     0.11000
H117        H  0.89262335  0.44388539  0.77901575     0.15600
H118        H  0.84511022  0.51582195  0.70221981     0.01300
H119        H  0.95475700  0.51819591  0.73746256     0.15900
H120        H  0.88131629  0.54480904  0.80650189     0.15700
C121        C  0.73749970  0.86700587  0.46362504     0.87400
C122        C  0.76636143  0.89473725  0.46558117    -0.52800
C123        C  0.76826173  0.91203657  0.49686877     0.10400
C124        C  0.73918054  0.90066926  0.52334142     0.21300
C125        C  0.74387263  0.84305186  0.49621308    -0.53500
C126        C  0.74439211  0.86054459  0.52763593     0.10500
C127        C  0.70369251  0.88711368  0.47176849    -0.53000
C128        C  0.70383212  0.90412540  0.50336697     0.11000
H129        H  0.78600489  0.89739838  0.44495366     0.15600
H130        H  0.74009892  0.91533315  0.54844011     0.01300
H131        H  0.74746289  0.81478673  0.49454436     0.15900
H132        H  0.68141167  0.88835453  0.45407246     0.15700
O133        O  0.68068827  0.73159384  0.22866179    -0.87400
C134        C  0.72903316  0.74206716  0.32358032     0.88600
Mg135      Mg  0.70563876  0.70610191  0.18540468     1.58100
O136        O  0.72564235  0.82091039  0.27486751    -0.87100
O137        O  0.65981906  0.78398363  0.24073107    -0.74400
C138        C  0.86705585  0.77668882  0.18149038     0.93700
O139        O  0.73510649  0.68024245  0.26749030    -0.74300
O140        O  0.84955961  0.74898604  0.17479739    -0.81800
Mg141      Mg  0.68096706  0.70454717  0.27823455     1.58000
C142        C  0.81019838  0.88670055  0.26407713     0.93600
O143        O  0.62499497  0.72380311  0.29109451    -0.80000
H144        H  0.69733761  0.85763953  0.24960089    -0.05400
C145        C  0.81707980  0.76737214  0.26929584     0.88600
O146        O  0.72238173  0.76066894  0.16348280    -0.74500
O147        O  0.70531884  0.74903532  0.30225778    -0.87300
O148        O  0.79246908  0.87132780  0.28843494    -0.80100
C149        C  0.71823563  0.83171153  0.36926629     0.93700
C150        C  0.61027738  0.74897410  0.30724025     0.93600
Mg151      Mg  0.79637657  0.82113046  0.21196686     1.58000
O152        O  0.85307552  0.80307082  0.19654072    -0.80000
O153        O  0.74218816  0.84424688  0.22427211    -0.74300
O154        O  0.69327348  0.81615867  0.35318382    -0.80100
O155        O  0.65713164  0.65650726  0.25405614    -0.81800
O156        O  0.78305129  0.71073287  0.13906774    -0.80100
C157        C  0.72093026  0.84185172  0.25003673     0.88000
O158        O  0.77191698  0.77569126  0.18923506    -0.87300
O159        O  0.79794258  0.79261050  0.26152133    -0.87400
O160        O  0.81892626  0.74020161  0.25024216    -0.74500
Mg161      Mg  0.67876580  0.79856322  0.29634855     1.58000
O162        O  0.74766594  0.83812116  0.35451024    -0.81800
H163        H  0.64859876  0.75774417  0.19585073    -0.05600
O164        O  0.75233682  0.70298646  0.21688514    -0.87100
H165        H  0.78036106  0.66655863  0.24296975    -0.05400
H166        H  0.74915072  0.80561915  0.15195937    -0.05600
C167        C  0.75680348  0.68238266  0.24205281     0.88000
C168        C  0.66222177  0.75736130  0.22088275     0.88600
C169        C  0.74825233  0.78155067  0.16747847     0.88600
H170        H  0.83141818  0.76777366  0.29390985    -0.05500
O171        O  0.75590927  0.76163488  0.32696394    -0.74600
Mg172      Mg  0.79865862  0.72637223  0.19527702     1.58000
H173        H  0.72746291  0.71789654  0.33888309    -0.05500
C174        C  0.66625545  0.63755791  0.22828048     0.93600
O175        O  0.73121931  0.68347824  0.13617989    -0.81800
C176        C  0.75976896  0.69395876  0.12190969     0.93700
O177        O  0.62720906  0.77630529  0.31641186    -0.81800
Mg178      Mg  0.77286982  0.81588717  0.30550222     1.58200
O179        O  0.68682928  0.64896366  0.20388736    -0.80100
O180        O  0.81871983  0.87122812  0.23568516    -0.81800
C181        C  0.79904822  0.61282369  0.00045520     0.87400
C182        C  0.79257624  0.63893183  0.02957251    -0.52800
C183        C  0.75977977  0.65333041  0.02955205     0.10400
C184        C  0.73658553  0.64066268  0.99848663     0.21300
C185        C  0.76911124  0.58567965  0.00439465    -0.53500
C186        C  0.73622081  0.60022107  0.00315195     0.10500
C187        C  0.79130036  0.63295328  0.96624326    -0.53000
C188        C  0.75817437  0.64667888  0.96417241     0.11000
H189        H  0.81142505  0.64242358  0.05071536     0.15600
H190        H  0.71031929  0.65319781  0.99797745     0.01300
H191        H  0.77356424  0.55764716  0.00800282     0.15900
H192        H  0.81034796  0.63502201  0.94499203     0.15700
C193        C  0.52138503  0.76390679  0.35373928     0.87400
C194        C  0.51929642  0.72868326  0.37319338    -0.52800
C195        C  0.48847375  0.72282197  0.39076706     0.10400
C196        C  0.46326533  0.75488328  0.38931071     0.21300
C197        C  0.48799598  0.76593324  0.33076813    -0.53500
C198        C  0.45727937  0.76166945  0.34950766     0.10500
C199        C  0.51548099  0.79108740  0.38217872    -0.53000
C200        C  0.48492283  0.78723521  0.40063637     0.11000
H201        H  0.54071804  0.70991799  0.37272927     0.15600
H202        H  0.43935905  0.75108132  0.40551807     0.01300
H203        H  0.48857369  0.77197503  0.30268570     0.15900
H204        H  0.53244882  0.81392876  0.38467151     0.15700
C205        C  0.14255227  0.95854262  0.75265191     0.87400
C206        C  0.11761187  0.96689984  0.72231527    -0.52800
C207        C  0.10024953  0.99811037  0.72500629     0.10400
C208        C  0.10980586  0.01851314  0.75890511     0.21300
C209        C  0.16738678  0.99054989  0.75385019    -0.53500
C210        C  0.15034176  0.02220949  0.75689624     0.10500
C211        C  0.11980080  0.96070650  0.78559457    -0.53000
C212        C  0.10320719  0.99196245  0.78973551     0.11000
H213        H  0.11549206  0.95016337  0.69941601     0.15600
H214        H  0.09531808  0.04365821  0.76127623     0.01300
H215        H  0.19571086  0.98843810  0.75137908     0.15900
H216        H  0.11742563  0.93923681  0.80470827     0.15700
C217        C  0.75972375  0.15220837  0.95816094     0.87400
C218        C  0.72607453  0.13021477  0.95991151    -0.52800
C219        C  0.72570845  0.10557282  0.98649509     0.10400
C220        C  0.75925906  0.10563100  0.00951283     0.21300
C221        C  0.76280149  0.16845380  0.99500110    -0.53500
C222        C  0.76251780  0.14389079  0.02197163     0.10500
C223        C  0.78960969  0.12546493  0.95653944    -0.53000
C224        C  0.78985529  0.10153278  0.98349856     0.11000
H225        H  0.70467673  0.13334010  0.94116671     0.15600
H226        H  0.75906834  0.08575431  0.03128493     0.01300
H227        H  0.76566942  0.19649502  0.99927657     0.15900
H228        H  0.81008799  0.12658302  0.93654768     0.15700
C229        C  0.35536005  0.52470970  0.75358518     0.87400
C230        C  0.37572537  0.52616181  0.71870987    -0.52800
C231        C  0.39889809  0.49913379  0.71422973     0.10400
C232        C  0.40154321  0.47436611  0.74660661     0.21300
C233        C  0.33930447  0.48732113  0.75562434    -0.53500
C234        C  0.36372885  0.46094731  0.75177020     0.10500
C235        C  0.38391724  0.52448506  0.78169967    -0.53000
C236        C  0.40793182  0.49829425  0.77860742     0.11000
H237        H  0.37205813  0.54695062  0.69922945     0.15600
H238        H  0.42115346  0.45297262  0.74379810     0.01300
H239        H  0.31141641  0.48227609  0.75888058     0.15900
H240        H  0.38468082  0.54309437  0.80322169     0.15700
C241        C  0.71543681  0.38373922  0.50757421     0.87400
C242        C  0.72977197  0.35509025  0.53278810    -0.52800
C243        C  0.75983971  0.33972242  0.52076822     0.10400
C244        C  0.77237804  0.35416734  0.48445485     0.21300
C245        C  0.74654936  0.40961568  0.50238182    -0.53500
C246        C  0.77649058  0.39376210  0.49021663     0.10500
C247        C  0.71126096  0.36544793  0.47185188    -0.53000
C248        C  0.74109815  0.35077143  0.45904813     0.11000
H249        H  0.71750018  0.34822621  0.55774949     0.15600
H250        H  0.79685507  0.34161847  0.47500709     0.01300
H251        H  0.74490810  0.43754827  0.50770682     0.15900
H252        H  0.68686583  0.36576601  0.45695938     0.15700
C253        C  0.60883919  0.51027003  0.28164402     0.87400
C254        C  0.63366381  0.54118700  0.27497772    -0.52800
C255        C  0.65230711  0.53932580  0.24427246     0.10400
C256        C  0.64558185  0.50493261  0.22387604     0.21300
C257        C  0.58632369  0.50814239  0.24802173    -0.53500
C258        C  0.60557214  0.50507422  0.21767365     0.10500
C259        C  0.63173209  0.47727692  0.28053267    -0.53000
C260        C  0.65077963  0.47379029  0.25018734     0.11000
H261        H  0.63417391  0.56417271  0.29170573     0.15600
H262        H  0.66189436  0.50249172  0.19983475     0.01300
H263        H  0.55780232  0.50774421  0.24830922     0.15900
H264        H  0.62981675  0.45691480  0.30077529     0.15700
C265        C  0.27949150  0.60370569  0.50335558     0.87400
C266        C  0.28174198  0.62600875  0.53651053    -0.52800
C267        C  0.25454997  0.64863159  0.54078446     0.10400
C268        C  0.22785778  0.64831067  0.51041026     0.21300
C269        C  0.24283386  0.58594825  0.50548456    -0.53500
C270        C  0.21574951  0.60975845  0.50921113     0.10500
C271        C  0.27613527  0.62994723  0.47275338    -0.53000
C272        C  0.24953345  0.65343937  0.47626962     0.11000
H273        H  0.30215542  0.62241013  0.55629504     0.15600
H274        H  0.20608947  0.66748571  0.51328067     0.01300
H275        H  0.23880550  0.55769658  0.50475923     0.15900
H276        H  0.29335394  0.62987154  0.44987056     0.15700
C277        C  0.99026348  0.71503097  0.10160212     0.87400
C278        C  0.95658290  0.71619663  0.12337340    -0.52800
C279        C  0.95477315  0.74305857  0.14650144     0.10400
C280        C  0.98788737  0.76656462  0.14654169     0.21300
C281        C  0.99314741  0.75201541  0.08407196    -0.53500
C282        C  0.99213931  0.77898296  0.10797422     0.10500
C283        C  0.02016085  0.71435257  0.12855232    -0.53000
C284        C  0.01921849  0.74126735  0.15192294     0.11000
H285        H  0.93525699  0.69745769  0.12008365     0.15600
H286        H  0.98693665  0.78833084  0.16577790     0.01300
H287        H  0.99531795  0.75642616  0.05579492     0.15900
H288        H  0.04122066  0.69509777  0.12821922     0.15700
O289        O  0.19238655  0.72733129  0.29531927    -0.87400
C290        C  0.29639966  0.71441683  0.27952316     0.88600
Mg291      Mg  0.15535521  0.72995425  0.25319366     1.58100
O292        O  0.27235038  0.80006405  0.30219682    -0.87100
O293        O  0.20884876  0.76076006  0.33914506    -0.74400
C294        C  0.23053711  0.83753854  0.13357937     0.93700
O295        O  0.23223560  0.68538761  0.23416435    -0.74300
O296        O  0.20884334  0.81191835  0.13487733    -0.81800
Mg297      Mg  0.22945441  0.68456012  0.29448902     1.58000
C298        C  0.31128800  0.88584221  0.25040102     0.93600
O299        O  0.22761734  0.67740482  0.35454704    -0.80000
H300        H  0.24778900  0.83259000  0.33501125    -0.05400
C301        C  0.28534810  0.78290827  0.19742042     0.88600
O302        O  0.15618019  0.79033388  0.25360419    -0.74500
O303        O  0.27054512  0.72175538  0.29772781    -0.87300
O304        O  0.32197155  0.85793043  0.26593373    -0.80100
C305        C  0.35729121  0.77053386  0.33374411     0.93700
C306        C  0.24220394  0.68851139  0.38249498     0.93600
Mg307      Mg  0.24185428  0.84455458  0.22263496     1.58000
O308        O  0.24499390  0.84976978  0.16131876    -0.80000
O309        O  0.23868207  0.84340187  0.28325222    -0.74300
O310        O  0.32971302  0.75583224  0.34630856    -0.80100
O311        O  0.18776595  0.64316015  0.28884555    -0.81800
O312        O  0.14102083  0.76961773  0.16971816    -0.80100
C313        C  0.25327141  0.82574348  0.30797476     0.88000
O314        O  0.19960564  0.80754289  0.21929269    -0.87300
O315        O  0.27802468  0.80128080  0.22306683    -0.87400
O316        O  0.26180468  0.76788017  0.17926736    -0.74500
Mg317      Mg  0.26905149  0.75836889  0.34042333     1.58000
O318        O  0.35619396  0.79174961  0.30748139    -0.81800
H319        H  0.15794571  0.75034872  0.32739848    -0.05600
O320        O  0.19820865  0.72851204  0.21612551    -0.87100
H321        H  0.22197387  0.69610196  0.18264872    -0.05400
H322        H  0.16680495  0.84148327  0.24190814    -0.05600
C323        C  0.21706892  0.70288855  0.20981545     0.88000
C324        C  0.18521577  0.74576807  0.32101117     0.88600
C325        C  0.17377866  0.81427612  0.23784846     0.88600
H326        H  0.31264828  0.77843257  0.19108501    -0.05500
O327        O  0.31428069  0.73794490  0.26360691    -0.74600
Mg328      Mg  0.20163354  0.76971785  0.17752076     1.58000
H329        H  0.30299854  0.68706982  0.27577002    -0.05500
C330        C  0.16105844  0.64201442  0.26879142     0.93600
O331        O  0.11480889  0.73492955  0.20994235    -0.81800
C332        C  0.11385514  0.75384514  0.18197247     0.93700
O333        O  0.26221606  0.71542785  0.38246347    -0.81800
Mg334      Mg  0.31504182  0.79804812  0.26500802     1.58200
O335        O  0.14872447  0.66936676  0.25336551    -0.80100
O336        O  0.28516118  0.88583949  0.22931525    -0.81800
C337        C  0.25390945  0.85041333  0.96877432     0.87400
C338        C  0.28824008  0.87035668  0.97468610    -0.52800
C339        C  0.28874198  0.89031295  0.00435901     0.10400
C340        C  0.25322974  0.88968718  0.02477600     0.21300
C341        C  0.24717059  0.82984598  0.00351504    -0.53500
C342        C  0.24667519  0.85035078  0.03308251     0.10500
C343        C  0.22568806  0.87884791  0.96812370    -0.53000
C344        C  0.22394494  0.89883362  0.99773635     0.11000
H345        H  0.31025289  0.86945699  0.95673544     0.15600
H346        H  0.25299116  0.90722454  0.04785821     0.01300
H347        H  0.24203359  0.80173383  0.00442322     0.15900
H348        H  0.20566404  0.87936358  0.94773182     0.15700
C349        C  0.47017490  0.25654707  0.65378891     0.87400
C350        C  0.46978011  0.22686870  0.62704644    -0.52800
C351        C  0.49823717  0.22626694  0.60507129     0.10400
C352        C  0.52456993  0.25646552  0.61160698     0.21300
C353        C  0.50570839  0.25212075  0.67296866    -0.53500
C354        C  0.53434478  0.25202871  0.65083415     0.10500
C355        C  0.47429022  0.29030149  0.63191005    -0.53000
C356        C  0.50321897  0.29100541  0.61041385     0.11000
H357        H  0.45010531  0.20615965  0.62794622     0.15600
H358        H  0.54709686  0.25629374  0.59309709     0.01300
H359        H  0.50795235  0.24879139  0.70138557     0.15900
H360        H  0.45616125  0.31217210  0.63417709     0.15700
O361        O  0.24677887  0.30242736  0.79562934    -0.87400
C362        C  0.33646153  0.24763380  0.78161157     0.88600
Mg363      Mg  0.20247614  0.28333825  0.82331005     1.58100
O364        O  0.28085012  0.25300617  0.70840452    -0.87100
O365        O  0.25753597  0.32423678  0.74301175    -0.74400
C366        C  0.17424685  0.12076142  0.76819012     0.93700
O367        O  0.28120335  0.24517346  0.84680899    -0.74300
O368        O  0.16756905  0.14172840  0.79308682    -0.81800
Mg369      Mg  0.29670096  0.29845036  0.82165605     1.58000
C370        C  0.25816325  0.16459890  0.64993421     0.93600
O371        O  0.31305357  0.35332762  0.79962188    -0.80000
H372        H  0.25435154  0.28020590  0.67153084    -0.05400
C373        C  0.26984173  0.16281713  0.76917733     0.88600
O374        O  0.17598440  0.26747176  0.77124499    -0.74500
O375        O  0.31639126  0.27270180  0.77596139    -0.87300
O376        O  0.28268769  0.18564598  0.65881311    -0.80100
C377        C  0.37266341  0.25321586  0.68479699     0.93700
C378        C  0.32807929  0.36757731  0.77287439     0.93600
Mg379      Mg  0.21387411  0.18397512  0.71792154     1.58000
O380        O  0.19458593  0.12954260  0.74259012    -0.80000
O381        O  0.22907441  0.23622586  0.68921124    -0.74300
O382        O  0.36307891  0.27887726  0.70401040    -0.80100
O383        O  0.27773692  0.32332837  0.87290709    -0.81800
O384        O  0.14369863  0.21370597  0.82765214    -0.80100
C385        C  0.25504029  0.25745872  0.68896861     0.88000
O386        O  0.19385252  0.21385345  0.76048066    -0.87300
O387        O  0.26383822  0.18233865  0.74343345    -0.87400
O388        O  0.24960537  0.16184861  0.79599396    -0.74500
Mg389      Mg  0.30920252  0.29904758  0.72594580     1.58000
O390        O  0.35382907  0.22577048  0.68112466    -0.81800
H391        H  0.21649108  0.33939239  0.77326391    -0.05600
O392        O  0.22742367  0.23331962  0.82907557    -0.87100
H393        H  0.25329324  0.20256865  0.86348907    -0.05400
H394        H  0.15913642  0.23896119  0.72960949    -0.05600
C395        C  0.25354499  0.22627551  0.84739151     0.88000
C396        C  0.23955095  0.32299939  0.77116806     0.88600
C397        C  0.17542597  0.23967975  0.75295279     0.88600
H398        H  0.29298638  0.14638277  0.76902753    -0.05500
O399        O  0.33589855  0.22008486  0.76291365    -0.74600
Mg400      Mg  0.19745949  0.18949270  0.81107773     1.58000
H401        H  0.35420723  0.24870766  0.80383821    -0.05500
C402        C  0.24946535  0.31699496  0.88981479     0.93600
O403        O  0.15458012  0.26545324  0.85214866    -0.81800
C404        C  0.13396338  0.24034093  0.84527222     0.93700
O405        O  0.33518471  0.35015564  0.74512829    -0.81800
Mg406      Mg  0.30721502  0.20370589  0.71223589     1.58200
O407        O  0.22360721  0.30144497  0.87579299    -0.80100
O408        O  0.23454280  0.15442155  0.67141794    -0.81800
C409        C  0.97106279  0.25500222  0.84842604     0.87400
C410        C  0.97879914  0.28624056  0.87214061    -0.52800
C411        C  0.00690460  0.28150736  0.89411015     0.10400
C412        C  0.02381023  0.24487736  0.89111780     0.21300
C413        C  0.00600075  0.24768845  0.82935327    -0.53500
C414        C  0.03373227  0.24233873  0.85180266     0.10500
C415        C  0.96628256  0.22336878  0.87347772    -0.53000
C416        C  0.99408140  0.21763559  0.89563925     0.11000
H417        H  0.96382220  0.31051447  0.87071596     0.15600
H418        H  0.04577012  0.24038084  0.90985481     0.01300
H419        H  0.00857061  0.24680070  0.80083856     0.15900
H420        H  0.94424182  0.20541509  0.87119754     0.15700
O421        O  0.75431679  0.19871612  0.20697231    -0.87400
C422        C  0.84067160  0.25830437  0.21809948     0.88600
Mg423      Mg  0.70931205  0.22086325  0.18090145     1.58100
O424        O  0.79326885  0.24346929  0.29613596    -0.87100
O425        O  0.77054355  0.17457297  0.25724829    -0.74400
C426        C  0.68643996  0.37804219  0.25574877     0.93700
O427        O  0.78505638  0.25810402  0.15550259    -0.74300
O428        O  0.67999881  0.36427372  0.22581475    -0.81800
Mg429      Mg  0.80251302  0.20410063  0.17874617     1.58000
C430        C  0.77004480  0.32116456  0.36582507     0.93600
O431        O  0.82251696  0.14809187  0.19805999    -0.80000
H432        H  0.76957094  0.20888282  0.32848722    -0.05400
C433        C  0.77675829  0.33705781  0.24661524     0.88600
O434        O  0.68288199  0.23200743  0.23390129    -0.74500
O435        O  0.82335716  0.23112895  0.22357565    -0.87300
O436        O  0.79712435  0.30783429  0.35128379    -0.80100
C437        C  0.88794286  0.25061330  0.30708517     0.93700
C438        C  0.84379328  0.13812349  0.22231001     0.93600
Mg439      Mg  0.72197139  0.30601880  0.29648066     1.58000
O440        O  0.70207938  0.36107743  0.28040191    -0.80000
O441        O  0.73978736  0.25154961  0.31633487    -0.74300
O442        O  0.87613505  0.22580247  0.28817851    -0.80100
O443        O  0.78061290  0.17836487  0.12943161    -0.81800
O444        O  0.65079960  0.29439361  0.18069543    -0.80100
C445        C  0.76803450  0.23383898  0.31453744     0.88000
O446        O  0.70147501  0.28416849  0.24948288    -0.87300
O447        O  0.77102402  0.31491323  0.27018528    -0.87400
O448        O  0.75761377  0.33959524  0.21923937    -0.74500
Mg449      Mg  0.82248514  0.20235414  0.27203222     1.58000
O450        O  0.86821057  0.27509368  0.31814921    -0.81800
H451        H  0.72695851  0.15981705  0.23021183    -0.05600
O452        O  0.73407809  0.27131096  0.17909291    -0.87100
H453        H  0.75765608  0.30246928  0.14326795    -0.05400
H454        H  0.66543849  0.25733869  0.27725142    -0.05600
C455        C  0.75856695  0.27830113  0.15862058     0.88000
C456        C  0.74965591  0.17690948  0.23108990     0.88600
C457        C  0.68222963  0.25827478  0.25424976     0.88600
H458        H  0.79958952  0.35384294  0.24872755    -0.05500
O459        O  0.84070643  0.28378794  0.23960591    -0.74600
Mg460      Mg  0.70562188  0.31496011  0.20159396     1.58000
H461        H  0.85561810  0.26079121  0.19393720    -0.05500
C462        C  0.75413505  0.18895435  0.11175366     0.93600
O463        O  0.66153573  0.24300475  0.15480009    -0.81800
C464        C  0.64152579  0.26883972  0.16104504     0.93700
O465        O  0.85186963  0.15773684  0.24788217    -0.81800
Mg466      Mg  0.81707805  0.29457343  0.29469023     1.58200
O467        O  0.73004738  0.20745446  0.12552278    -0.80100
O468        O  0.74187090  0.32694860  0.34857792    -0.81800
C469        C  0.89577117  0.01407529  0.28683173     0.87400
C470        C  0.87024286  0.98299826  0.28575107    -0.52800
C471        C  0.85473852  0.97771930  0.25374166     0.10400
C472        C  0.86568900  0.00532031  0.22551826     0.21300
C473        C  0.92184058  0.00745051  0.25645004    -0.53500
C474        C  0.90599358  0.00257954  0.22438317     0.10500
C475        C  0.87416055  0.04578343  0.27422263    -0.53000
C476        C  0.85903050  0.04180080  0.24182912     0.11000
H477        H  0.86737621  0.96496041  0.30801872     0.15600
H478        H  0.85291424  0.00189740  0.19943790     0.01300
H479        H  0.95014606  0.00710041  0.25991302     0.15900
H480        H  0.87180801  0.07014655  0.28851421     0.15700
C481        C  0.03973052  0.26715558  0.35091572     0.87400
C482        C  0.03513788  0.23450950  0.37429395    -0.52800
C483        C  0.00620758  0.23531479  0.39558983     0.10400
C484        C  0.98427462  0.26932774  0.39126896     0.21300
C485        C  0.00488928  0.26992086  0.33021410    -0.53500
C486        C  0.97586557  0.27093794  0.35172406     0.10500
C487        C  0.03932227  0.29813940  0.37606233    -0.53000
C488        C  0.01024676  0.29990050  0.39669335     0.11000
H489        H  0.05237977  0.21187583  0.37245790     0.15600
H490        H  0.96069856  0.27022636  0.40850917     0.01300
H491        H  0.00330862  0.27098453  0.30161916     0.15900
H492        H  0.05971773  0.31819878  0.37620182     0.15700
O493        O  0.30548362  0.22978497  0.22167072    -0.87400
C494        C  0.31174534  0.24457065  0.32674837     0.88600
Mg495      Mg  0.30508943  0.27270560  0.18428094     1.58100
O496        O  0.22855507  0.21847301  0.29790295    -0.87100
O497        O  0.27258545  0.18452380  0.23691734    -0.74400
C498        C  0.18401352  0.38264726  0.24678279     0.93700
O499        O  0.34473813  0.29030561  0.26339458    -0.74300
O500        O  0.21293834  0.38409054  0.22972050    -0.81800
Mg501      Mg  0.34639952  0.22962186  0.26038112     1.58000
C502        C  0.13835212  0.26726049  0.32838919     0.93600
O503        O  0.35166647  0.16874369  0.25780949    -0.80000
H504        H  0.19930597  0.18362133  0.27200507    -0.05400
C505        C  0.23961613  0.32439560  0.31065222     0.88600
O506        O  0.24521027  0.26907719  0.17980972    -0.74500
O507        O  0.30736206  0.22519626  0.30110487    -0.87300
O508        O  0.16542531  0.25345733  0.34280264    -0.80100
C509        C  0.24991839  0.18605654  0.38537756     0.93700
C510        C  0.34008752  0.14028731  0.27201449     0.93600
Mg511      Mg  0.18388279  0.29444167  0.26141481     1.58000
O512        O  0.17303048  0.35413563  0.26107995    -0.80000
O513        O  0.18779229  0.23442825  0.26001911    -0.74300
O514        O  0.26741039  0.17416731  0.35923838    -0.80100
O515        O  0.38956878  0.23620301  0.21845015    -0.81800
O516        O  0.26294527  0.35180403  0.16808088    -0.80100
C517        C  0.20475321  0.21101670  0.27706884     0.88000
O518        O  0.22421645  0.30025690  0.22311952    -0.87300
O519        O  0.22367742  0.29752434  0.30190688    -0.87400
O520        O  0.25581184  0.34359041  0.28831106    -0.74500
Mg521      Mg  0.27088787  0.18179076  0.29774118     1.58000
O522        O  0.23019234  0.21298882  0.38237887    -0.81800
H523        H  0.28447571  0.19751799  0.18616685    -0.05600
O524        O  0.30242600  0.30855867  0.22811652    -0.87100
H525        H  0.33315253  0.34181676  0.25454475    -0.05400
H526        H  0.19325015  0.27804821  0.18711038    -0.05600
C527        C  0.32704659  0.31477444  0.24851234     0.88000
C528        C  0.28782409  0.20368364  0.21372671     0.88600
C529        C  0.21972657  0.28283879  0.19618228     0.88600
H530        H  0.24101054  0.33091617  0.33829379    -0.05500
O531        O  0.28623070  0.25918944  0.34246414    -0.74600
Mg532      Mg  0.25890314  0.34476234  0.22802098     1.58000
H533        H  0.33822758  0.25031687  0.33521568    -0.05500
C534        C  0.39218767  0.25845626  0.19304366     0.93600
O535        O  0.30177130  0.31629379  0.14261429    -0.81800
C536        C  0.28021970  0.34184010  0.14121368     0.93700
O537        O  0.31425064  0.14017281  0.29349135    -0.81800
Mg538      Mg  0.22601412  0.25571118  0.33998199     1.58200
O539        O  0.36577214  0.27588918  0.18182570    -0.80100
O540        O  0.14013577  0.28628012  0.30058496    -0.81800
C541        C  0.23125782  0.40836412  0.01066071     0.87400
C542        C  0.23767502  0.38656062  0.04400435    -0.52800
C543        C  0.26774287  0.36712182  0.04348375     0.10400
C544        C  0.28784263  0.37004142  0.00819579     0.21300
C545        C  0.26507423  0.43003893  0.00522698    -0.53500
C546        C  0.29487126  0.40981416  0.00370598     0.10500
C547        C  0.23155047  0.38226965  0.98047273    -0.53000
C548        C  0.26115013  0.36218142  0.97877008     0.11000
H549        H  0.22000172  0.38729101  0.06647208     0.15600
H550        H  0.31129244  0.35289871  0.00696654     0.01300
H551        H  0.26534194  0.45845869  0.00189508     0.15900
H552        H  0.21122305  0.38229872  0.96038401     0.15700
C553        C  0.40026245  0.00534892  0.22035710     0.87400
C554        C  0.38313919  0.04113729  0.22681086    -0.52800
C555        C  0.36080034  0.04161090  0.25514803     0.10400
C556        C  0.35658949  0.00515167  0.27344457     0.21300
C557        C  0.41738949  0.99522861  0.25591541    -0.53500
C558        C  0.39456405  0.99473480  0.28397906     0.10500
C559        C  0.36988826  0.97933804  0.21665675    -0.53000
C560        C  0.34692982  0.97920682  0.24402209     0.11000
H561        H  0.38891740  0.06407626  0.21045598     0.15600
H562        H  0.33712497  0.00510169  0.29511256     0.01300
H563        H  0.44507866  0.98893172  0.25861675     0.15900
H564        H  0.36773353  0.96094707  0.19505421     0.15700
O565        O  0.97078075  0.98735920  0.56705937    -0.87400
C566        C  0.06492413  0.99724342  0.51770803     0.88600
Mg567      Mg  0.92549315  0.96516450  0.54255906     1.58100
O568        O  0.01932974  0.07671655  0.52439480    -0.87100
O569        O  0.98554284  0.03783477  0.59061733    -0.74400
C570        C  0.92195104  0.04022515  0.38224551     0.93700
O571        O  0.00535906  0.93878306  0.50830271    -0.74300
O572        O  0.91297835  0.01206421  0.39846620    -0.81800
Mg573      Mg  0.01899869  0.95867627  0.56343660     1.58000
C574        C  0.01007888  0.14478910  0.44092995     0.93600
O575        O  0.03514508  0.97412893  0.61987205    -0.80000
H576        H  0.99575515  0.11261755  0.55425474    -0.05400
C577        C  0.00878238  0.02649220  0.43121720     0.88600
O578        O  0.90556406  0.02078207  0.52843757    -0.74500
O579        O  0.04384970  0.00389165  0.54152494    -0.87300
O580        O  0.03377866  0.12812586  0.45798690    -0.80100
C581        C  0.11395179  0.08393522  0.52902720     0.93700
C582        C  0.05193602  0.99790818  0.63636255     0.93600
Mg583      Mg  0.95501501  0.08092208  0.45443902     1.58000
O584        O  0.93836050  0.06506898  0.39756417    -0.80000
O585        O  0.96930663  0.10142844  0.50932537    -0.74300
O586        O  0.09744053  0.06814368  0.55400569    -0.80100
O587        O  0.99453099  0.90814632  0.58362161    -0.81800
O588        O  0.87629176  0.97185120  0.46535593    -0.80100
C589        C  0.99529601  0.09779420  0.53012042     0.88000
O590        O  0.92977686  0.03583164  0.47767325    -0.87300
O591        O  0.00283754  0.05077750  0.45176994    -0.87400
O592        O  0.98797455  0.00056227  0.42813381    -0.74500
Mg593      Mg  0.04081960  0.05193875  0.57040111     1.58000
O594        O  0.09915616  0.09236901  0.49998954    -0.81800
H595        H  0.94032632  0.01176130  0.60200265    -0.05600
O596        O  0.95467384  0.96261119  0.49434892    -0.87100
H597        H  0.97858154  0.92773597  0.46355146    -0.05400
H598        H  0.89505400  0.06645066  0.50216263    -0.05600
C599        C  0.97902933  0.94213408  0.48794915     0.88000
C600        C  0.96472896  0.01184734  0.58741518     0.88600
C601        C  0.90933082  0.04188573  0.50230792     0.88600
H602        H  0.03307967  0.02666780  0.41645271    -0.05500
O603        O  0.06859288  0.01726773  0.49087530    -0.74600
Mg604      Mg  0.93291012  0.98746611  0.44905521     1.58000
H605        H  0.07951407  0.97288230  0.51902798    -0.05500
C606        C  0.96712799  0.89190405  0.57340941     0.93600
O607        O  0.87476388  0.94503835  0.51809348    -0.81800
C608        C  0.85982178  0.95491472  0.48955385     0.93700
O609        O  0.06112838  0.02680025  0.62154594    -0.81800
Mg610      Mg  0.04853963  0.07216246  0.47591992     1.58200
O611        O  0.94209123  0.90771062  0.55732612    -0.80100
O612        O  0.98083627  0.13073515  0.43274309    -0.81800
O613        O  0.03389145  0.94224912  0.99193239    -0.87400
C614        C  0.02039242  0.99232596  0.08429062     0.88600
Mg615      Mg  0.05747121  0.96742010  0.94686821     1.58100
O616        O  0.94310038  0.98283140  0.03524130    -0.87100
O617        O  0.98362557  0.91723787  0.00577597    -0.74400
C618        C  0.98112132  0.12442002  0.93443115     0.93700
O619        O  0.08168167  0.00042002  0.02723709    -0.74300
O620        O  0.01086785  0.11053297  0.92811571    -0.81800
Mg621      Mg  0.06141225  0.94465154  0.04123564     1.58000
C622        C  0.87468882  0.06299392  0.01790000     0.93600
O623        O  0.04336147  0.88667545  0.05656871    -0.80000
H624        H  0.91038287  0.95103214  0.00950415    -0.05400
C625        C  0.99230349  0.07743411  0.02443247     0.88600
O626        O  0.00362980  0.97988511  0.92335145    -0.74500
O627        O  0.01517554  0.96703540  0.06468652    -0.87300
O628        O  0.88853740  0.04747474  0.04453807    -0.80100
C629        C  0.92933035  0.97974758  0.12949586     0.93700
C630        C  0.01805044  0.87186223  0.07356711     0.93600
Mg631      Mg  0.94245008  0.05106268  0.96796593     1.58000
O632        O  0.95659541  0.10762815  0.95022577    -0.80000
O633        O  0.92279681  0.99568646  0.98238667    -0.74300
O634        O  0.94659098  0.95450155  0.11585043    -0.80100
O635        O  0.11378844  0.92498101  0.01786666    -0.81800
O636        O  0.05556998  0.04642375  0.89481868    -0.80100
C637        C  0.92448507  0.97574180  0.00951748     0.88000
O638        O  0.98875711  0.03064400  0.94548704    -0.87300
O639        O  0.96900381  0.05587178  0.01754555    -0.87400
O640        O  0.01918522  0.08152805  0.00494808    -0.74500
Mg641      Mg  0.96692906  0.93822436  0.06003866     1.58000
O642        O  0.92261452  0.00807101  0.11260469    -0.81800
H643        H  0.01120635  0.90619873  0.96146481    -0.05600
O644        O  0.05984502  0.01588018  0.97542339    -0.87100
H645        H  0.09341626  0.04630055  0.00180245    -0.05400
H646        H  0.95986371  0.00671242  0.90889839    -0.05600
C647        C  0.07910234  0.02173348  0.00109162     0.88000
C648        C  0.01004308  0.92110629  0.98552178     0.88600
C649        C  0.98339445  0.00629807  0.92485826     0.88600
H650        H  0.99039490  0.09225984  0.04849326    -0.05500
O651        O  0.99945132  0.01833701  0.08563121    -0.74600
Mg652      Mg  0.03603799  0.06116886  0.95089352     1.58000
H653        H  0.04417532  0.99290612  0.09985341    -0.05500
C654        C  0.12931558  0.93543766  0.98969940     0.93600
O655        O  0.07946867  0.99286678  0.89688909    -0.81800
C656        C  0.07226182  0.02141380  0.88030788     0.93700
O657        O  0.99110769  0.88901769  0.08336570    -0.81800
Mg658      Mg  0.94505294  0.03182623  0.06274843     1.58200
O659        O  0.11312482  0.95215692  0.96525281    -0.80100
O660        O  0.89212859  0.07039235  0.99017413    -0.81800
O661        O  0.45925054  0.06517236  0.48527720    -0.87400
C662        C  0.47573885  0.01881824  0.58129243     0.88600
Mg663      Mg  0.42634430  0.04170245  0.44555368     1.58100
O664        O  0.54956426  0.01830845  0.52643576    -0.87100
O665        O  0.51283515  0.08542154  0.49327822    -0.74400
C666        C  0.48696033  0.87735917  0.44282843     0.93700
O667        O  0.40852835  0.01412376  0.52955871    -0.74300
O668        O  0.45894202  0.89328609  0.43337510    -0.81800
Mg669      Mg  0.43685704  0.06708816  0.53676935     1.58000
C670        C  0.60565106  0.92777587  0.51122915     0.93600
O671        O  0.45960887  0.12164578  0.54742500    -0.80000
H672        H  0.58341839  0.04456165  0.49549077    -0.05400
C673        C  0.48783569  0.93042840  0.52693158     0.88600
O674        O  0.47584957  0.02197108  0.41717284    -0.74500
O675        O  0.48170879  0.04109398  0.55794670    -0.87300
O676        O  0.59809824  0.94821422  0.53665970    -0.80100
C677        C  0.56732247  0.02369380  0.62003239     0.93700
C678        C  0.48581567  0.13650529  0.56174944     0.93600
Mg679      Mg  0.53548318  0.94785594  0.46579894     1.58000
O680        O  0.51272211  0.89356653  0.45640203    -0.80000
O681        O  0.56325599  0.00074812  0.47321462    -0.74300
O682        O  0.55184082  0.04931970  0.60424082    -0.80100
O683        O  0.38927245  0.09435113  0.51579457    -0.81800
O684        O  0.41978753  0.96412324  0.39749518    -0.80100
C685        C  0.56648535  0.02188367  0.49870652     0.88000
O686        O  0.49002865  0.97293744  0.44453196    -0.87300
O687        O  0.51303739  0.94883160  0.51712974    -0.87400
O688        O  0.45978372  0.92774583  0.50879917    -0.74500
Mg689      Mg  0.53144673  0.06616020  0.54842246     1.58000
O690        O  0.57286735  0.99439192  0.60507248    -0.81800
H691        H  0.48344112  0.09614239  0.44971920    -0.05600
O692        O  0.42273581  0.99491506  0.47714575    -0.87100
H693        H  0.38888336  0.96932944  0.50867039    -0.05400
H694        H  0.51663672  0.99106723  0.40253416    -0.05600
C695        C  0.40577174  0.99196039  0.50488389     0.88000
C696        C  0.48475736  0.08294553  0.47513869     0.88600
C697        C  0.49497721  0.99476933  0.42054645     0.88600
H698        H  0.48937135  0.91687500  0.55215440    -0.05500
O699        O  0.49412701  0.99110307  0.58456055    -0.74600
Mg700      Mg  0.44072680  0.94711653  0.45399082     1.58000
H701        H  0.45354514  0.02246708  0.59864908    -0.05500
C702        C  0.36733719  0.08697497  0.49186550     0.93600
O703        O  0.39450591  0.01693712  0.40256781    -0.81800
C704        C  0.40091364  0.98935996  0.38514098     0.93700
O705        O  0.51378972  0.11966159  0.56933625    -0.81800
Mg706      Mg  0.54450809  0.97113422  0.55823934     1.58200
O707        O  0.37390000  0.06452816  0.46807334    -0.80100
O708        O  0.58414491  0.92172707  0.48645186    -0.81800
C709        C  0.25049015  0.15475050  0.54908169     0.87400
C710        C  0.27770243  0.12698684  0.54004817    -0.52800
C711        C  0.27248131  0.11099591  0.50845990     0.10400
C712        C  0.23869471  0.12320022  0.48944820     0.21300
C713        C  0.24990269  0.17995341  0.51674116    -0.53500
C714        C  0.24398144  0.16332855  0.48527712     0.10500
C715        C  0.21518610  0.13591272  0.54778144    -0.53000
C716        C  0.20852327  0.11925241  0.51683178     0.11000
H717        H  0.30090401  0.12234774  0.55616254     0.15600
H718        H  0.23349625  0.10940493  0.46436582     0.01300
H719        H  0.25414726  0.20812707  0.51850702     0.15900
H720        H  0.19633917  0.13767548  0.56916169     0.15700
O721        O  0.46810984  0.02842015  0.03858779    -0.87400
C722        C  0.57326235  0.01192869  0.04992139     0.88600
Mg723      Mg  0.43003301  0.98710740  0.03634309     1.58100
O724        O  0.54678693  0.03474836  0.96398098    -0.87100
O725        O  0.48408006  0.07224186  0.00415166    -0.74400
C726        C  0.50243483  0.86797919  0.92865762     0.93700
O727        O  0.50663978  0.96677982  0.08218253    -0.74300
O728        O  0.48246968  0.86932095  0.95569825    -0.81800
Mg729      Mg  0.50576452  0.02705524  0.08156080     1.58000
C730        C  0.58425442  0.98428976  0.87646376     0.93600
O731        O  0.50714019  0.08726915  0.08846866    -0.80000
H732        H  0.52324653  0.06813056  0.93035063    -0.05400
C733        C  0.56054317  0.93056142  0.98356260     0.88600
O734        O  0.43152512  0.98712806  0.97573897    -0.74500
O735        O  0.54704380  0.03002936  0.04318068    -0.87300
O736        O  0.59529802  0.99927735  0.90434557    -0.80100
C737        C  0.63114817  0.07062157  0.98778196     0.93700
C738        C  0.52182079  0.11494424  0.07600443     0.93600
Mg739      Mg  0.51652524  0.95623370  0.92067747     1.58000
O740        O  0.51771165  0.89532451  0.91594378    -0.80000
O741        O  0.51400338  0.01667728  0.92017075    -0.74300
O742        O  0.60369638  0.08154395  0.00335082    -0.80100
O743        O  0.46272734  0.02294374  0.12305013    -0.81800
O744        O  0.41504663  0.90539863  0.99792986    -0.80100
C745        C  0.52830235  0.04104739  0.93779470     0.88000
O746        O  0.47516072  0.95354553  0.95916996    -0.87300
O747        O  0.55395071  0.95576580  0.96356562    -0.87400
O748        O  0.53653191  0.91319799  0.99943931    -0.74500
Mg749      Mg  0.54407097  0.07302483  0.00492930     1.58000
O750        O  0.63123520  0.04275322  0.96943937    -0.81800
H751        H  0.43336641  0.06112760  0.01620560    -0.05600
O752        O  0.47254698  0.94948024  0.03914927    -0.87100
H753        H  0.49521083  0.91562987  0.07288418    -0.05400
H754        H  0.44230087  0.97621750  0.92464459    -0.05600
C755        C  0.49102980  0.94280500  0.06521563     0.88000
C756        C  0.46067781  0.05436776  0.02009542     0.88600
C757        C  0.44928761  0.97193831  0.95201956     0.88600
H758        H  0.58767310  0.92391472  0.98871647    -0.05500
O759        O  0.59089496  0.99702189  0.02589996    -0.74600
Mg760      Mg  0.47611234  0.91159512  0.99791028     1.58000
H761        H  0.58062246  0.00759133  0.07718690    -0.05500
C762        C  0.43383596  0.00603268  0.12364841     0.93600
O763        O  0.38783214  0.94421991  0.03226432    -0.81800
C764        C  0.38727113  0.91712100  0.01280533     0.93700
O765        O  0.53940237  0.11481596  0.04739969    -0.81800
Mg766      Mg  0.59054475  0.99854934  0.96531114     1.58200
O767        O  0.42178082  0.99031453  0.09664112    -0.80100
O768        O  0.55871329  0.96249887  0.87724528    -0.81800
C769        C  0.51353929  0.21262469  0.10386646     0.87400
C770        C  0.48479237  0.21029031  0.13199237    -0.52800
C771        C  0.48173809  0.23958048  0.15200718     0.10400
C772        C  0.50822451  0.26914314  0.14213947     0.21300
C773        C  0.50489365  0.24616511  0.08245242    -0.53500
C774        C  0.50247276  0.27590475  0.10229936     0.10500
C775        C  0.54709591  0.22178255  0.12398052    -0.53000
C776        C  0.54479427  0.25172650  0.14358847     0.11000
H777        H  0.46760478  0.18763048  0.13528461     0.15600
H778        H  0.50583553  0.29289897  0.15865732     0.01300
H779        H  0.50183556  0.24653022  0.05395341     0.15900
H780        H  0.57106664  0.20649752  0.12183148     0.15700
O781        O  0.48034023  0.44938016  0.96205980    -0.87400
C782        C  0.46890146  0.55458477  0.97104292     0.88600
Mg783      Mg  0.48151712  0.41451220  0.00652922     1.58100
O784        O  0.55457062  0.52910218  0.94965787    -0.87100
O785        O  0.51496476  0.46347068  0.91761625    -0.74400
C786        C  0.58954983  0.49243638  0.11873918     0.93700
O787        O  0.43861887  0.49296367  0.02082761    -0.74300
O788        O  0.56409047  0.47066709  0.11882359    -0.81800
Mg789      Mg  0.43840965  0.48725991  0.96073774     1.58000
C790        C  0.63944531  0.57005280  0.00073154     0.93600
O791        O  0.43195554  0.48253654  0.90102154    -0.80000
H792        H  0.58752703  0.50375385  0.91781393    -0.05400
C793        C  0.53568638  0.54619456  0.05338053     0.88600
O794        O  0.54191301  0.41357040  0.00520572    -0.74500
O795        O  0.47634515  0.52754379  0.95492742    -0.87300
O796        O  0.61238733  0.58055289  0.98382750    -0.80100
C797        C  0.52565879  0.61257869  0.91305888     0.93700
C798        C  0.44352411  0.49541590  0.87209493     0.93600
Mg799      Mg  0.59698352  0.50114116  0.03011014     1.58000
O800        O  0.60156981  0.50640729  0.09042771    -0.80000
O801        O  0.59736668  0.49578961  0.96990361    -0.74300
O802        O  0.51146574  0.58394482  0.90295465    -0.80100
O803        O  0.39617857  0.44665941  0.96909953    -0.81800
O804        O  0.52177763  0.40215073  0.08920710    -0.80100
C805        C  0.58026653  0.50988143  0.94461059     0.88000
O806        O  0.55943683  0.45915124  0.03550530    -0.87300
O807        O  0.55430225  0.53800868  0.02802920    -0.87400
O808        O  0.52070366  0.52322756  0.07291120    -0.74500
Mg809      Mg  0.51323005  0.52369202  0.91223390     1.58000
O810        O  0.54689467  0.61356158  0.93901738    -0.81800
H811        H  0.50380880  0.41320001  0.93244157    -0.05600
O812        O  0.48093282  0.45896046  0.04051204    -0.87100
H813        H  0.44884783  0.48482659  0.07280499    -0.05400
H814        H  0.59310785  0.42458167  0.01516236    -0.05600
C815        C  0.45568245  0.47858939  0.04592111     0.88000
C816        C  0.49931300  0.44083411  0.93704715     0.88600
C817        C  0.56601075  0.43208517  0.01897112     0.88600
H818        H  0.53108237  0.57374113  0.05835853    -0.05500
O819        O  0.49228286  0.57343193  0.98536067    -0.74600
Mg820      Mg  0.52200365  0.46290550  0.07795653     1.58000
H821        H  0.44158662  0.56155912  0.97429102    -0.05500
C822        C  0.39428594  0.42231627  0.99236035     0.93600
O823        O  0.48457023  0.37618989  0.05227426    -0.81800
C824        C  0.50459473  0.37513897  0.07913515     0.93700
O825        O  0.47066827  0.51506157  0.87069194    -0.81800
Mg826      Mg  0.55230705  0.57376927  0.98417343     1.58200
O827        O  0.42128479  0.41053143  0.00842008    -0.80100
O828        O  0.63833699  0.54415007  0.02244801    -0.81800
O829        O  0.05037784  0.49575160  0.47343499    -0.87400
C830        C  0.00450168  0.59195217  0.47717367     0.88600
Mg831      Mg  0.02818698  0.45225792  0.44594368     1.58100
O832        O  0.00068845  0.54383000  0.55617908    -0.87100
O833        O  0.06936687  0.50896590  0.52629029    -0.74400
C834        C  0.86126332  0.44825160  0.50095876     0.93700
O835        O  0.00181545  0.53331349  0.41650279    -0.74300
O836        O  0.88010235  0.43863056  0.47499790    -0.81800
Mg837      Mg  0.05419768  0.54409529  0.44515911     1.58000
C838        C  0.90937012  0.53272205  0.61258954     0.93600
O839        O  0.10855018  0.55567753  0.46924317    -0.80000
H840        H  0.02453303  0.51703907  0.59508393    -0.05400
C841        C  0.91356972  0.53688266  0.49276358     0.88600
O842        O  0.00660741  0.43058598  0.49864119    -0.74500
O843        O  0.02709203  0.57036819  0.48659703    -0.87300
O844        O  0.93086557  0.55642063  0.60168080    -0.80100
C845        C  0.00771262  0.63788433  0.56845755     0.93700
C846        C  0.12263182  0.57235112  0.49450196     0.93600
Mg847      Mg  0.92819724  0.48170903  0.54851318     1.58000
O848        O  0.87375739  0.46692358  0.52567607    -0.80000
O849        O  0.98030239  0.49355035  0.57695377    -0.74300
O850        O  0.03412257  0.62183653  0.55536546    -0.80100
O851        O  0.08231006  0.51800766  0.40082881    -0.81800
O852        O  0.94997329  0.40280915  0.44140014    -0.80100
C853        C  0.00261260  0.51850843  0.57699449     0.88000
O854        O  0.95590065  0.45637076  0.50695858    -0.87300
O855        O  0.93106044  0.53018955  0.51958970    -0.87400
O856        O  0.91205921  0.51586424  0.46691637    -0.74500
Mg857      Mg  0.04990275  0.56491334  0.53838805     1.58000
O858        O  0.97754105  0.62347317  0.57113562    -0.81800
H859        H  0.08085313  0.46324469  0.50181392    -0.05600
O860        O  0.98150705  0.48248287  0.43625060    -0.87100
H861        H  0.95733787  0.51031263  0.39825769    -0.05400
H862        H  0.97454879  0.41955786  0.54014375    -0.05600
C863        C  0.97942423  0.50836804  0.41609835     0.88000
C864        C  0.06761562  0.48835393  0.50019893     0.88600
C865        C  0.97843973  0.43468939  0.51608647     0.88600
H866        H  0.89980947  0.56169583  0.49089367    -0.05500
O867        O  0.97584505  0.59574373  0.49395636    -0.74600
Mg868      Mg  0.93290663  0.46012035  0.45544926     1.58000
H869        H  0.00869137  0.60710166  0.45317981    -0.05500
C870        C  0.07597706  0.49151926  0.38187337     0.93600
O871        O  0.00509865  0.40440033  0.42132909    -0.81800
C872        C  0.97652519  0.38795600  0.42738856     0.93700
O873        O  0.10441055  0.58422659  0.52001399    -0.81800
Mg874      Mg  0.95407410  0.57424757  0.54659274     1.58200
O875        O  0.05341919  0.46812447  0.39088449    -0.80100
O876        O  0.90008173  0.50713776  0.59355462    -0.81800
O877        O  0.97197703  0.45841930  0.95702993    -0.87400
C878        C  0.07428664  0.48214366  0.95154332     0.88600
Mg879      Mg  0.93216284  0.49670590  0.95762568     1.58100
O880        O  0.04512841  0.45560843  0.03570641    -0.87100
O881        O  0.98746180  0.41446236  0.99141356    -0.74400
C882        C  0.98670959  0.61761367  0.07199777     0.93700
O883        O  0.00908217  0.52377942  0.91734948    -0.74300
O884        O  0.96840792  0.61635914  0.04382641    -0.81800
Mg885      Mg  0.01101542  0.46352513  0.91598434     1.58000
C886        C  0.07567406  0.50898334  0.12467096     0.93600
O887        O  0.01415520  0.40410700  0.91006117    -0.80000
H888        H  0.02258596  0.41964476  0.06736809    -0.05400
C889        C  0.05198473  0.56196845  0.02041607     0.88600
O890        O  0.92848158  0.49417775  0.01799006    -0.74500
O891        O  0.04957793  0.46149139  0.95647333    -0.87300
O892        O  0.08945054  0.49525372  0.09748553    -0.80100
C893        C  0.13260549  0.42877180  0.01531998     0.93700
C894        C  0.02806067  0.37605160  0.92231671     0.93600
Mg895      Mg  0.00632048  0.53019664  0.07879346     1.58000
O896        O  0.00232481  0.59059566  0.08485088    -0.80000
O897        O  0.00852832  0.46986366  0.07787914    -0.74300
O898        O  0.10710945  0.41483156  0.99875501    -0.80100
O899        O  0.97079432  0.46727070  0.87091993    -0.81800
O900        O  0.90702461  0.57557453  0.99709257    -0.80100
C901        C  0.02581705  0.44721411  0.06071708     0.88000
O902        O  0.96726306  0.53131193  0.03855025    -0.87300
O903        O  0.04542069  0.53499656  0.03786012    -0.87400
O904        O  0.02826112  0.57862560  0.00359456    -0.74500
Mg905      Mg  0.04720544  0.41782029  0.99403947     1.58000
O906        O  0.12923520  0.45624714  0.03378742    -0.81800
H907        H  0.93736550  0.42313669  0.97551101    -0.05600
O908        O  0.97167287  0.53724090  0.95908041    -0.87100
H909        H  0.99455820  0.57375378  0.92831527    -0.05400
H910        H  0.93411005  0.50475053  0.06997243    -0.05600
C911        C  0.99135269  0.54608251  0.93450727     0.88000
C912        C  0.96449515  0.43147343  0.97404522     0.88600
C913        C  0.94274150  0.51041065  0.04331222     0.88600
H914        H  0.07890446  0.57084329  0.01832027    -0.05500
O915        O  0.08855999  0.49867939  0.97663724    -0.74600
Mg916      Mg  0.96821678  0.57450625  0.00090040     1.58000
H917        H  0.08287088  0.48756439  0.92481781    -0.05500
C918        C  0.94179130  0.48390698  0.87019570     0.93600
O919        O  0.88894997  0.53571328  0.95828907    -0.81800
C920        C  0.88309738  0.56162086  0.97805256     0.93700
O921        O  0.04624633  0.37564262  0.95065462    -0.81800
Mg922      Mg  0.08541577  0.49591895  0.03682187     1.58200
O923        O  0.92830765  0.49680710  0.89779092    -0.80100
O924        O  0.04707366  0.52636177  0.12312423    -0.81800
C925        C  0.14419200  0.54260948  0.25756958     0.87400
C926        C  0.12135225  0.53232646  0.28911837    -0.52800
C927        C  0.10483728  0.50052936  0.28630616     0.10400
C928        C  0.11212447  0.48222677  0.25080705     0.21300
C929        C  0.16930337  0.51146620  0.25287143    -0.53500
C930        C  0.15284374  0.47966587  0.24922377     0.10500
C931        C  0.11997736  0.54123521  0.22555947    -0.53000
C932        C  0.10303315  0.50991237  0.22177939     0.11000
H933        H  0.11901211  0.54875017  0.31224079     0.15600
H934        H  0.09813572  0.45684349  0.24768022     0.01300
H935        H  0.19768450  0.51434016  0.25224236     0.15900
H936        H  0.11697703  0.56301103  0.20692190     0.15700
O937        O  0.44171131  0.49474161  0.52231585    -0.87400
C938        C  0.49486770  0.58600612  0.50749862     0.88600
Mg939      Mg  0.46202208  0.45324923  0.55561053     1.58100
O940        O  0.49330112  0.53049848  0.43453648    -0.87100
O941        O  0.42235579  0.50538614  0.46867388    -0.74400
C942        C  0.62714459  0.43362591  0.50063577     0.93700
O943        O  0.49367813  0.53363378  0.57446782    -0.74300
O944        O  0.60899351  0.42584579  0.52796565    -0.81800
Mg945      Mg  0.44165187  0.54544973  0.54502657     1.58000
C946        C  0.58492977  0.50984192  0.38059317     0.93600
O947        O  0.38731804  0.55967343  0.52019205    -0.80000
H948        H  0.46650243  0.50199809  0.39965594    -0.05400
C949        C  0.58071193  0.52355240  0.49757471     0.88600
O950        O  0.48043156  0.42366810  0.50636430    -0.74500
O951        O  0.47086913  0.56507946  0.50113074    -0.87300
O952        O  0.56404603  0.53482897  0.38808424    -0.80100
C953        C  0.49444583  0.62322699  0.41231586     0.93700
C954        C  0.37751447  0.57857243  0.49395330     0.93600
Mg955      Mg  0.56093516  0.46476391  0.44938504     1.58000
O956        O  0.61386920  0.44979846  0.47420034    -0.80000
O957        O  0.50928541  0.47712628  0.41992076    -0.74300
O958        O  0.46799977  0.61300876  0.43048082    -0.80100
O959        O  0.41222935  0.52624142  0.59240047    -0.81800
O960        O  0.53599726  0.39787992  0.56641466    -0.80100
C961        C  0.48889747  0.50352973  0.41710234     0.88000
O962        O  0.53263022  0.44485375  0.49396183    -0.87300
O963        O  0.56163595  0.51560162  0.47245999    -0.87400
O964        O  0.58190966  0.50495194  0.52574041    -0.74500
Mg965      Mg  0.44726186  0.55828943  0.45086409     1.58000
O966        O  0.52127947  0.60389077  0.40797272    -0.81800
H967        H  0.40787985  0.46272228  0.49818352    -0.05600
O968        O  0.51073194  0.48053570  0.55990245    -0.87100
H969        H  0.53725875  0.50982144  0.59435129    -0.05400
H970        H  0.51096071  0.40585697  0.46649899    -0.05600
C971        C  0.51476722  0.50773073  0.57709785     0.88000
C972        C  0.42323249  0.48665286  0.49679048     0.88600
C973        C  0.50850674  0.42385930  0.48819120     0.88600
H974        H  0.59626391  0.54733344  0.49580802    -0.05500
O975        O  0.52307482  0.58654091  0.48958770    -0.74600
Mg976      Mg  0.55719275  0.45232983  0.54433712     1.58000
H977        H  0.49219089  0.60360577  0.52949611    -0.05500
C978        C  0.42008647  0.50249660  0.61480597     0.93600
O979        O  0.48275130  0.40869246  0.58846557    -0.81800
C980        C  0.50936537  0.38897089  0.58513576     0.93700
O981        O  0.39774903  0.58559791  0.46814044    -0.81800
Mg982      Mg  0.54186578  0.55797511  0.43996391     1.58200
O983        O  0.44126492  0.47764664  0.60771334    -0.80100
O984        O  0.59092679  0.48445056  0.40180856    -0.81800
C985        C  0.99140628  0.79742427  0.60548462     0.87400
C986        C  0.02310186  0.79039675  0.62910139    -0.52800
C987        C  0.02359230  0.75804980  0.64512697     0.10400
C988        C  0.99126762  0.73511626  0.63562926     0.21300
C989        C  0.99121179  0.76672936  0.57906814    -0.53500
C990        C  0.99181389  0.73400440  0.59503969     0.10500
C991        C  0.95987150  0.79070143  0.62941711    -0.53000
C992        C  0.95821383  0.75753940  0.64366271     0.11000
H993        H  0.04458470  0.80907374  0.63112208     0.15600
H994        H  0.99103133  0.70866683  0.64847319     0.01300
H995        H  0.99074973  0.77052709  0.55063033     0.15900
H996        H  0.93921377  0.80996676  0.63303934     0.15700
O997        O  0.18631329  0.77132452  0.77071228    -0.87400
C998        C  0.23363560  0.75991929  0.67664642     0.88600
Mg999      Mg  0.21319493  0.79466390  0.81434652     1.58100
O1000       O  0.22454227  0.68196138  0.72563749    -0.87100
O1001       O  0.15986955  0.72166670  0.75780426    -0.74400
C1002       C  0.37089651  0.71933959  0.81717413     0.93700
O1003       O  0.24390223  0.82021414  0.73255862    -0.74300
O1004       O  0.35634460  0.74858584  0.82406354    -0.81800
Mg1005     Mg  0.18831381  0.79969268  0.72144081     1.58000
C1006       C  0.30533785  0.61165088  0.73750588     0.93600
O1007       O  0.13116546  0.78390785  0.70699851    -0.80000
H1008       H  0.19394513  0.64880912  0.75322140    -0.05400
C1009       C  0.31990201  0.72981017  0.73103637     0.88600
O1010       O  0.22670540  0.74026018  0.83710938    -0.74500
O1011       O  0.20912354  0.75427813  0.69744470    -0.87300
O1012       O  0.28795624  0.62703289  0.71298562    -0.80100
C1013       C  0.22005466  0.67424249  0.63064057     0.93700
C1014       C  0.11436507  0.76021989  0.69031295     0.93600
Mg1015     Mg  0.29648446  0.67877781  0.78892151     1.58000
O1016       O  0.35412012  0.69395345  0.80312260    -0.80000
O1017       O  0.24029250  0.65970137  0.77714981    -0.74300
O1018       O  0.19520775  0.69128655  0.64516294    -0.80100
O1019       O  0.16922630  0.85000355  0.74560383    -0.81800
O1020       O  0.29370861  0.79253626  0.86073202    -0.80100
C1021       C  0.21871502  0.66268376  0.75162790     0.88000
O1022       O  0.27657398  0.72511765  0.81251089    -0.87300
O1023       O  0.29876698  0.70644637  0.73948568    -0.87400
O1024       O  0.32438884  0.75691229  0.74967684    -0.74500
Mg1025     Mg  0.17924302  0.70664371  0.70237399     1.58000
O1026       O  0.24656383  0.66316094  0.64789505    -0.81800
H1027       H  0.15101252  0.74859196  0.80283014    -0.05600
O1028       O  0.26018383  0.79667205  0.78312457    -0.87100
H1029       H  0.28996273  0.83153925  0.75679003    -0.05400
H1030       H  0.25349399  0.69590742  0.85017558    -0.05600
C1031       C  0.26555136  0.81699895  0.75790303     0.88000
C1032       C  0.16499196  0.74765426  0.77803108     0.88600
C1033       C  0.25281300  0.71971419  0.83424180     0.88600
H1034       H  0.33377824  0.72785573  0.70625180    -0.05500
O1035       O  0.25945458  0.73896772  0.67396371    -0.74600
Mg1036     Mg  0.30609988  0.77301658  0.80457703     1.58000
H1037       H  0.23374975  0.78408728  0.66126374    -0.05500
C1038       C  0.18111613  0.86653449  0.77208408     0.93600
O1039       O  0.24028133  0.81645790  0.86251429    -0.81800
C1040       C  0.26978099  0.80944404  0.87677969     0.93700
O1041       O  0.12884672  0.73157392  0.68112035    -0.81800
Mg1042     Mg  0.27242304  0.68393053  0.69604840     1.58200
O1043       O  0.19875271  0.85122902  0.79639202    -0.80100
O1044       O  0.31500255  0.62770468  0.76517002    -0.81800
C1045       C  0.46431598  0.74188214  0.85119040     0.87400
C1046       C  0.46280669  0.76959069  0.87996059    -0.52800
C1047       C  0.49262810  0.77255263  0.89930562     0.10400
C1048       C  0.52166203  0.74633419  0.88880644     0.21300
C1049       C  0.49733216  0.75167414  0.82939578    -0.53500
C1050       C  0.52758985  0.75348180  0.84908233     0.10500
C1051       C  0.47412820  0.70761864  0.87073533    -0.53000
C1052       C  0.50455578  0.70947563  0.88973516     0.11000
H1053       H  0.44052337  0.78705956  0.88344194     0.15600
H1054       H  0.54562396  0.74851866  0.90529766     0.01300
H1055       H  0.49693002  0.75582485  0.80099659     0.15900
H1056       H  0.45873386  0.68373478  0.86990376     0.15700
C1057       C  0.40808587  0.71432448  0.82712243    -0.15500
C1058       C  0.43000055  0.74206700  0.83060764    -0.30600
H1059       H  0.41644425  0.68772464  0.83305266     0.13500
H1060       H  0.42114845  0.76772591  0.82121851     0.14100
C1061       C  0.05569573  0.74527505  0.66401104    -0.15500
C1062       C  0.07771577  0.76812661  0.67986147    -0.30600
H1063       H  0.06268463  0.71768787  0.66205442     0.13500
H1064       H  0.06922301  0.79507794  0.68367836     0.14100
C1065       C  0.09569034  0.50689204  0.15796391    -0.15500
C1066       C  0.08107868  0.50367539  0.19016964    -0.30600
H1067       H  0.12410430  0.50906563  0.15589133     0.13500
H1068       H  0.05307096  0.49920430  0.19322803     0.14100
C1069       C  0.01262678  0.67371928  0.58266306    -0.15500
C1070       C  0.99013779  0.70027896  0.57563992    -0.30600
H1071       H  0.03492595  0.67822234  0.59991883     0.13500
H1072       H  0.96944336  0.69686887  0.55625637     0.14100
C1073       C  0.09720084  0.48906914  0.34942601    -0.15500
C1074       C  0.08422821  0.48558255  0.31655473    -0.30600
H1075       H  0.12402753  0.49855392  0.35209134     0.13500
H1076       H  0.05754150  0.47651282  0.31230356     0.14100
C1077       C  0.51546661  0.64533127  0.89435166    -0.15500
C1078       C  0.52069283  0.67796719  0.90708918    -0.30600
H1079       H  0.50062154  0.64205560  0.87015984     0.13500
H1080       H  0.53669849  0.68169883  0.93045263     0.14100
C1081       C  0.49646226  0.31088149  0.08546827    -0.15500
C1082       C  0.50842686  0.34134604  0.09883656    -0.30600
H1083       H  0.48398543  0.31110748  0.05967270     0.13500
H1084       H  0.52299624  0.34125916  0.12346032     0.14100
C1085       C  0.50711901  0.83427464  0.90991162    -0.15500
C1086       C  0.49700696  0.80279281  0.92318737    -0.30600
H1087       H  0.51741562  0.83564482  0.88315924     0.13500
H1088       H  0.48595668  0.80079648  0.94955009     0.14100
C1089       C  0.51914023  0.14753050  0.09663234    -0.15500
C1090       C  0.51699625  0.17980907  0.08169806    -0.30600
H1091       H  0.51715863  0.14474393  0.12513668     0.13500
H1092       H  0.51683757  0.18245516  0.05310823     0.14100
C1093       C  0.33412032  0.10650454  0.49278249    -0.15500
C1094       C  0.30194211  0.09180530  0.49159132    -0.30600
H1095       H  0.33641133  0.13331365  0.50222446     0.13500
H1096       H  0.29818006  0.06500490  0.48281985     0.14100
C1097       C  0.96441618  0.85348446  0.58038773    -0.15500
C1098       C  0.99289059  0.83444531  0.58983617    -0.30600
H1099       H  0.93884285  0.84096779  0.57854370     0.13500
H1100       H  0.01813080  0.84781346  0.59069502     0.14100
C1101       C  0.17331984  0.10393074  0.50902592    -0.15500
C1102       C  0.15108641  0.09352429  0.53499591    -0.30600
H1103       H  0.16505628  0.10281632  0.48163953     0.13500
H1104       H  0.16024577  0.09209617  0.56209542     0.14100
C1105       C  0.42481530  0.00547993  0.18877283    -0.15500
C1106       C  0.41189360  0.00629820  0.15565536    -0.30600
H1107       H  0.45298072  0.00361772  0.19297361     0.13500
H1108       H  0.38363677  0.00612305  0.15167104     0.14100
C1109       C  0.38609768  0.98813803  0.34924296    -0.15500
C1110       C  0.40681483  0.98609838  0.32057617    -0.30600
H1111       H  0.35888247  0.99582048  0.34666618     0.13500
H1112       H  0.43459424  0.98065012  0.32435182     0.14100
C1113       C  0.19744541  0.42882567  0.01261164    -0.15500
C1114       C  0.16672226  0.41130156  0.01365713    -0.30600
H1115       H  0.19798907  0.45740284  0.01276265     0.13500
H1116       H  0.16656537  0.38280590  0.01154326     0.14100
C1117       C  0.32978567  0.42489881  0.99529034    -0.15500
C1118       C  0.35983492  0.40734589  0.00159652    -0.30600
H1119       H  0.33074330  0.45122298  0.98374442     0.13500
H1120       H  0.35962867  0.38237695  0.01576098     0.14100
C1121       C  0.16182511  0.41451757  0.25047580    -0.15500
C1122       C  0.17376900  0.44713390  0.24332830    -0.30600
H1123       H  0.13563245  0.41100747  0.26127048     0.13500
H1124       H  0.20078948  0.45042370  0.23462421     0.14100
C1125       C  0.25225291  0.16744606  0.42004504    -0.15500
C1126       C  0.24274002  0.18249490  0.45069669    -0.30600
H1127       H  0.26295505  0.14098486  0.42037009     0.13500
H1128       H  0.23475101  0.20992018  0.45067420     0.14100
C1129       C  0.42615910  0.26356495  0.17433542    -0.15500
C1130       C  0.45343006  0.24157297  0.17874498    -0.30600
H1131       H  0.42732993  0.28336607  0.15337445     0.13500
H1132       H  0.45125466  0.21987314  0.19759271     0.14100
C1133       C  0.35730009  0.10685977  0.26192075    -0.15500
C1134       C  0.34393080  0.07442447  0.26857413    -0.30600
H1135       H  0.38136764  0.10949202  0.24678002     0.13500
H1136       H  0.32049022  0.07165469  0.28470306     0.14100
C1137       C  0.27369834  0.36093265  0.10787235    -0.15500
C1138       C  0.28113295  0.34851947  0.07555394    -0.30600
H1139       H  0.25955880  0.38556567  0.11027949     0.13500
H1140       H  0.29654667  0.32474041  0.07259456     0.14100
C1141       C  0.97497610  0.35039920  0.41768609    -0.15500
C1142       C  0.00483009  0.33153778  0.41808228    -0.30600
H1143       H  0.95077080  0.33946781  0.40733210     0.13500
H1144       H  0.02853493  0.34358795  0.42849050     0.14100
C1145       C  0.99478402  0.20367904  0.41592599    -0.15500
C1146       C  0.01861322  0.18069323  0.42866590    -0.30600
H1147       H  0.96688290  0.19809925  0.41808378     0.13500
H1148       H  0.04624881  0.18789566  0.42863824     0.14100
C1149       C  0.07313100  0.26686351  0.32944092    -0.15500
C1150       C  0.10425186  0.26226023  0.34587066    -0.30600
H1151       H  0.07203104  0.27215355  0.30121289     0.13500
H1152       H  0.10471130  0.25569265  0.37388668     0.14100
C1153       C  0.92569224  0.99901728  0.19089082    -0.15500
C1154       C  0.91573142  0.97636798  0.16581431    -0.30600
H1155       H  0.94757778  0.01680288  0.18595889     0.13500
H1156       H  0.89524992  0.95710873  0.17121077     0.14100
C1157       C  0.91249712  0.04415134  0.34455616    -0.15500
C1158       C  0.91266981  0.01602905  0.32315825    -0.30600
H1159       H  0.90501490  0.07003856  0.33504504     0.13500
H1160       H  0.92359549  0.99151004  0.33339219     0.14100
C1161       C  0.86067892  0.10323745  0.22224248    -0.15500
C1162       C  0.84282193  0.07257164  0.22323682    -0.30600
H1163       H  0.88789801  0.10296972  0.23097442     0.13500
H1164       H  0.81528397  0.07151351  0.21591898     0.14100
C1165       C  0.93916009  0.27327648  0.33945737    -0.15500
C1166       C  0.92572067  0.25073013  0.31609943    -0.30600
H1167       H  0.92191068  0.29113588  0.35331756     0.13500
H1168       H  0.94262555  0.23111791  0.30429155     0.14100
C1169       C  0.60706361  0.26778578  0.14353331    -0.15500
C1170       C  0.57620755  0.26735616  0.16085240    -0.30600
H1171       H  0.60749452  0.25910806  0.11631804     0.13500
H1172       H  0.57460093  0.27548514  0.18815002     0.14100
C1173       C  0.02191680  0.31077059  0.91520334    -0.15500
C1174       C  0.02131281  0.34388341  0.90207151    -0.30600
H1175       H  0.03258714  0.30523422  0.94124914     0.13500
H1176       H  0.01155880  0.34826914  0.87541958     0.14100
C1177       C  0.99991255  0.18364825  0.91455854    -0.15500
C1178       C  0.97396105  0.16067223  0.92204030    -0.30600
H1179       H  0.02690267  0.17649184  0.92052721     0.13500
H1180       H  0.94670946  0.16828330  0.91854887     0.14100
C1181       C  0.06972781  0.23460431  0.83921192    -0.15500
C1182       C  0.09790147  0.24328465  0.85847974    -0.30600
H1183       H  0.07320328  0.22401702  0.81295306     0.13500
H1184       H  0.09454874  0.25755694  0.88283901     0.14100
C1185       C  0.24431788  0.32935582  0.92602392    -0.15500
C1186       C  0.26990780  0.34215801  0.94657971    -0.30600
H1187       H  0.21745966  0.32896561  0.93571835     0.13500
H1188       H  0.29719926  0.34048669  0.93845107     0.14100
C1189       C  0.25662300  0.15066331  0.61402944    -0.15500
C1190       C  0.25756673  0.17109071  0.58465907    -0.30600
H1191       H  0.25006222  0.12294905  0.61167522     0.13500
H1192       H  0.26201934  0.19923997  0.58653865     0.14100
C1193       C  0.51462627  0.32361773  0.59115201    -0.15500
C1194       C  0.50802138  0.35541804  0.60493215    -0.30600
H1195       H  0.52720208  0.32149428  0.56556681     0.13500
H1196       H  0.49582445  0.35683394  0.63077077     0.14100
C1197       C  0.50684473  0.19420089  0.58466717    -0.15500
C1198       C  0.48116877  0.17354551  0.57203731    -0.30600
H1199       H  0.53406780  0.18585578  0.58333202     0.13500
H1200       H  0.45439197  0.18341428  0.57162960     0.14100
C1201       C  0.40521448  0.25612526  0.66364857    -0.15500
C1202       C  0.43783623  0.25654798  0.67756603    -0.30600
H1203       H  0.40225791  0.25499564  0.63517388     0.13500
H1204       H  0.44112212  0.25561159  0.70603933     0.14100
C1205       C  0.27712521  0.82253943  0.91252769    -0.15500
C1206       C  0.25099466  0.82837532  0.93570574    -0.30600
H1207       H  0.30422301  0.82813271  0.91897408     0.13500
H1208       H  0.22477953  0.81909011  0.92918815     0.14100
C1209       C  0.35380208  0.89820748  0.00621732    -0.15500
C1210       C  0.32135129  0.90921190  0.01599629    -0.30600
H1211       H  0.35638042  0.87416912  0.99135468     0.13500
H1212       H  0.31857666  0.93216015  0.03248703     0.14100
C1213       C  0.18989325  0.91575275  0.00770117    -0.15500
C1214       C  0.16664672  0.92672574  0.98298763    -0.30600
H1215       H  0.18265518  0.91604329  0.03541000     0.13500
H1216       H  0.17508705  0.92879028  0.95566695     0.14100
C1217       C  0.23999249  0.85345373  0.09889916    -0.15500
C1218       C  0.23694902  0.83560318  0.06849447    -0.30600
H1219       H  0.25182685  0.87938597  0.09900235     0.13500
H1220       H  0.22717201  0.80872666  0.06951566     0.14100
C1221       C  0.33175252  0.91826457  0.25613699    -0.15500
C1222       C  0.32068420  0.95067639  0.24708149    -0.30600
H1223       H  0.35820786  0.91511361  0.26655238     0.13500
H1224       H  0.29452735  0.95487022  0.23645236     0.14100
C1225       C  0.14374556  0.60792388  0.26319237    -0.13900
C1226       C  0.16213178  0.57770327  0.26223604    -0.30600
H1227       H  0.11560498  0.60765320  0.25844915     0.13500
H1228       H  0.19054456  0.57836891  0.26494131     0.14100
C1229       C  0.04928389  0.74763515  0.17560898    -0.15500
C1230       C  0.08080856  0.75606617  0.16173379    -0.30600
H1231       H  0.04635441  0.74193131  0.20360420     0.13500
H1232       H  0.08264190  0.76281179  0.13380740     0.14100
C1233       C  0.99006624  0.68328721  0.07760273    -0.15500
C1234       C  0.98907169  0.65055260  0.09206285    -0.30600
H1235       H  0.98979739  0.68698170  0.04913563     0.13500
H1236       H  0.99110445  0.64763138  0.12056552     0.14100
C1237       C  0.99268771  0.81705832  0.09886765    -0.15500
C1238       C  0.01905033  0.83328380  0.08115600    -0.30600
H1239       H  0.97168563  0.83265674  0.11004385     0.13500
H1240       H  0.04110593  0.81798124  0.07168261     0.14100
C1241       C  0.25021520  0.66597811  0.57499378    -0.15500
C1242       C  0.21944522  0.66761941  0.59235224    -0.30600
H1243       H  0.27434234  0.67185504  0.58914178     0.13500
H1244       H  0.19474566  0.66199993  0.57925112     0.14100
C1245       C  0.31186830  0.58062602  0.50013335    -0.15500
C1246       C  0.34334034  0.59639746  0.49493159    -0.30600
H1247       H  0.30983846  0.55220897  0.50271942     0.13500
H1248       H  0.34431487  0.62473134  0.49077180     0.14100
C1249       C  0.16127748  0.57763607  0.49325215    -0.15500
C1250       C  0.17793986  0.60097734  0.51353812    -0.30600
H1251       H  0.17616663  0.56333839  0.47364473     0.13500
H1252       H  0.16268059  0.61731587  0.53111957     0.14100
C1253       C  0.24236923  0.67915540  0.44760264    -0.15500
C1254       C  0.23769840  0.66709476  0.41478497    -0.30600
H1255       H  0.24555099  0.70705173  0.45248409     0.13500
H1256       H  0.23291078  0.63913874  0.41122720     0.14100
C1257       C  0.58884032  0.49811711  0.18324120    -0.15500
C1258       C  0.60592233  0.50200808  0.15240413    -0.30600
H1259       H  0.56176084  0.48902403  0.18337771     0.13500
H1260       H  0.63188527  0.51371901  0.15140370     0.14100
C1261       C  0.60411217  0.51047902  0.34697311    -0.15500
C1262       C  0.58803235  0.51342601  0.31551393    -0.30600
H1263       H  0.63209185  0.50496645  0.34796170     0.13500
H1264       H  0.55968919  0.51655314  0.31434671     0.14100
C1265       C  0.66660618  0.43933898  0.23988020    -0.15500
C1266       C  0.67480130  0.41419754  0.26399746    -0.30600
H1267       H  0.67007274  0.43414653  0.21199901     0.13500
H1268       H  0.67389257  0.42044052  0.29182549     0.14100
C1269       C  0.74201897  0.33741154  0.42220277    -0.15500
C1270       C  0.77148564  0.33038322  0.40383144    -0.30600
H1271       H  0.71688169  0.33545633  0.40875666     0.13500
H1272       H  0.79702324  0.33178456  0.41639243     0.14100
C1273       C  0.68102415  0.40027267  0.51908564    -0.15500
C1274       C  0.66436140  0.42302624  0.49732659    -0.30600
H1275       H  0.66814853  0.39076717  0.54296731     0.13500
H1276       H  0.67779474  0.43166640  0.47339054     0.14100
C1277       C  0.81088332  0.41115239  0.48343765    -0.15500
C1278       C  0.82405153  0.43670216  0.50374471    -0.30600
H1279       H  0.82774923  0.39911185  0.46391130     0.13500
H1280       H  0.80819875  0.44712091  0.52500744     0.14100
C1281       C  0.33044570  0.55542454  0.75920394    -0.15500
C1282       C  0.31617186  0.57458511  0.73264570    -0.30600
H1283       H  0.32993690  0.56650165  0.78549268     0.13500
H1284       H  0.31515998  0.56409544  0.70617611     0.14100
C1285       C  0.35534463  0.42281332  0.74975828    -0.15500
C1286       C  0.33618591  0.40580715  0.77441935    -0.30600
H1287       H  0.36764882  0.40800284  0.72882298     0.13500
H1288       H  0.32605064  0.42047002  0.79662043     0.14100
C1289       C  0.43406205  0.49261713  0.80699563    -0.15500
C1290       C  0.42225930  0.48938803  0.84033465    -0.30600
H1291       H  0.46183370  0.49577433  0.80129585     0.13500
H1292       H  0.39439624  0.48459458  0.84466895     0.14100
C1293       C  0.41677315  0.49239317  0.68000202    -0.15500
C1294       C  0.40319421  0.50488608  0.64950088    -0.30600
H1295       H  0.44057239  0.47671207  0.67985179     0.13500
H1296       H  0.37882991  0.51959345  0.64964934     0.14100
C1297       C  0.76667053  0.15249051  0.05974486    -0.15500
C1298       C  0.75090777  0.18044270  0.07400822    -0.30600
H1299       H  0.78111908  0.13415636  0.07648945     0.13500
H1300       H  0.73386781  0.19687581  0.05775394     0.14100
C1301       C  0.69563429  0.08108128  0.99130308    -0.15500
C1302       C  0.66256905  0.09322949  0.98894911    -0.30600
H1303       H  0.70063788  0.05328725  0.99594564     0.13500
H1304       H  0.65818209  0.12147401  0.98760559     0.14100
C1305       C  0.82032247  0.07807658  0.98772322    -0.15500
C1306       C  0.83735226  0.07351412  0.01853140    -0.30600
H1307       H  0.83326237  0.07042114  0.96342492     0.13500
H1308       H  0.82539912  0.08112220  0.04329002     0.14100
C1309       C  0.15927880  0.92282346  0.74824134    -0.15500
C1310       C  0.17385936  0.90455006  0.77509702    -0.30600
H1311       H  0.15500658  0.90955814  0.72337826     0.13500
H1312       H  0.17859989  0.91718453  0.80018944     0.14100
C1313       C  0.16937437  0.05661371  0.75482848    -0.15500
C1314       C  0.15654686  0.08591848  0.76954032    -0.30600
H1315       H  0.19478781  0.05757426  0.74179970     0.13500
H1316       H  0.13271574  0.08411805  0.78519066     0.14100
C1317       C  0.07938559  0.01205590  0.69463095    -0.15500
C1318       C  0.06272279  0.98959783  0.67295860    -0.30600
H1319       H  0.08122229  0.03986490  0.68796245     0.13500
H1320       H  0.05928453  0.96236764  0.68140875     0.14100
C1321       C  0.08348180  0.02498693  0.84289330    -0.15500
C1322       C  0.08222804  0.99657611  0.82228536    -0.30600
H1323       H  0.09483540  0.04953391  0.83330709     0.13500
H1324       H  0.07050636  0.97269677  0.83328649     0.14100
C1325       C  0.42224216  0.76802214  0.33318307    -0.15500
C1326       C  0.39154814  0.76226128  0.35015168    -0.30600
H1327       H  0.42180154  0.77851636  0.30636123     0.13500
H1328       H  0.39098283  0.74988543  0.37603742     0.14100
C1329       C  0.47994857  0.68771801  0.40710947    -0.15500
C1330       C  0.49533643  0.65819682  0.39497483    -0.30600
H1331       H  0.46189454  0.68630217  0.42926274     0.13500
H1332       H  0.51240515  0.65986796  0.37208943     0.14100
C1333       C  0.47044840  0.81808645  0.41954482    -0.15500
C1334       C  0.49273538  0.83967266  0.43623398    -0.30600
H1335       H  0.44337994  0.82574449  0.41483306     0.13500
H1336       H  0.51911204  0.83018280  0.44189414     0.14100
C1337       C  0.83567337  0.59796094  0.00209854    -0.15500
C1338       C  0.84704432  0.57526157  0.97812763    -0.30600
H1339       H  0.85347487  0.60667298  0.02264519     0.13500
H1340       H  0.82902336  0.56606554  0.95798704     0.14100
C1341       C  0.70379227  0.57878908  0.00757585    -0.15500
C1342       C  0.67253483  0.58970514  0.99509250    -0.30600
H1343       H  0.70582018  0.55343312  0.02100942     0.13500
H1344       H  0.67091147  0.61385130  0.97956922     0.14100
C1345       C  0.76813787  0.68560322  0.08497390    -0.15500
C1346       C  0.74600681  0.67014511  0.06208327    -0.30600
H1347       H  0.79489145  0.69134907  0.07676340     0.13500
H1348       H  0.71852814  0.66644374  0.06885850     0.14100
C1349       C  0.83620723  0.94427976  0.24520903    -0.15500
C1350       C  0.82222230  0.92308308  0.27041958    -0.30600
H1351       H  0.83618268  0.93598949  0.21790272     0.13500
H1352       H  0.82006096  0.93231297  0.29729511     0.14100
C1353       C  0.57267934  0.74544880  0.31653254    -0.15500
C1354       C  0.55607459  0.77023905  0.33513357    -0.30600
H1355       H  0.55933021  0.72093001  0.31068411     0.13500
H1356       H  0.57018303  0.79432424  0.34107544     0.14100
C1357       C  0.65069516  0.60189696  0.22773385    -0.15500
C1358       C  0.66926515  0.57165082  0.22901137    -0.30600
H1359       H  0.62304267  0.60066982  0.23486051     0.13500
H1360       H  0.69716118  0.57150839  0.22313476     0.14100
C1361       C  0.90470780  0.77766348  0.17106765    -0.15500
C1362       C  0.92220588  0.74719152  0.16737983    -0.30600
H1363       H  0.91700544  0.80258496  0.16402149     0.13500
H1364       H  0.90884338  0.72279873  0.17453394     0.14100
C1365       C  0.82287861  0.94510609  0.48261344    -0.15500
C1366       C  0.80096479  0.93109312  0.50710081    -0.30600
H1367       H  0.81402630  0.94799993  0.45549857     0.13500
H1368       H  0.80869167  0.93031894  0.53467782     0.14100
C1369       C  0.67158563  0.92201121  0.51706189    -0.15500
C1370       C  0.63958537  0.90910068  0.50883101    -0.30600
H1371       H  0.67412512  0.94613125  0.53184417     0.13500
H1372       H  0.63818127  0.88439288  0.49482455     0.14100
C1373       C  0.73939567  0.84810407  0.42846853    -0.15500
C1374       C  0.71241125  0.84361633  0.40583912    -0.30600
H1375       H  0.76532988  0.83928569  0.42048232     0.13500
H1376       H  0.68560556  0.84879798  0.41369881     0.14100
C1377       C  0.91606996  0.53059867  0.67703962    -0.15500
C1378       C  0.89495906  0.53319897  0.64867313    -0.30600
H1379       H  0.94425039  0.53332033  0.67317222     0.13500
H1380       H  0.86706069  0.52834971  0.65114421     0.14100
C1381       C  0.93417703  0.49536400  0.80563333    -0.15500
C1382       C  0.92097629  0.48708155  0.83760642    -0.30600
H1383       H  0.96229391  0.49884646  0.80215246     0.13500
H1384       H  0.89261734  0.48569459  0.84074290     0.14100
C1385       C  0.85696974  0.40910560  0.72635061    -0.15500
C1386       C  0.84554904  0.44272093  0.72233933    -0.30600
H1387       H  0.88220594  0.40444336  0.73878926     0.13500
H1388       H  0.82088790  0.44800986  0.70894325     0.14100
C1389       C  0.60013761  0.25265770  0.64523095    -0.15500
C1390       C  0.57065259  0.24596822  0.66413399    -0.30600
H1391       H  0.59864010  0.26487764  0.61926695     0.13500
H1392       H  0.57307770  0.23597191  0.69102826     0.14100
C1393       C  0.78386236  0.30519988  0.57445575    -0.15500
C1394       C  0.78169036  0.31326851  0.53974083    -0.30600
H1395       H  0.80552500  0.28800355  0.58180947     0.13500
H1396       H  0.80180998  0.30132814  0.52348713     0.14100
C1397       C  0.90755167  0.26506347  0.83761303    -0.15500
C1398       C  0.94003284  0.26140644  0.82424790    -0.30600
H1399       H  0.90364337  0.26224657  0.86592780     0.13500
H1400       H  0.94400855  0.26222512  0.79585171     0.14100
C1401       C  0.75755572  0.16498046  0.89418948    -0.15500
C1402       C  0.76124649  0.17758118  0.92700621    -0.30600
H1403       H  0.75085041  0.13736918  0.89109675     0.13500
H1404       H  0.76682183  0.20526137  0.93108654     0.14100
C1405       C  0.60243842  0.99362206  0.84295559    -0.15500
C1406       C  0.59073931  0.98689227  0.80994614    -0.30600
H1407       H  0.62657087  0.00846379  0.84611827     0.13500
H1408       H  0.56758295  0.97067665  0.80622743     0.14100
C1409       C  0.58843656  0.00241600  0.67908134    -0.15500
C1410       C  0.57995440  0.02902137  0.65648357    -0.30600
H1411       H  0.58320081  0.97536782  0.67185206     0.13500
H1412       H  0.58250956  0.05610966  0.66479191     0.14100
C1413       C  0.67701245  0.06844134  0.74979368    -0.15500
C1414       C  0.66208560  0.10065891  0.74840632    -0.30600
H1415       H  0.70534401  0.06589376  0.75199223     0.13500
H1416       H  0.63392066  0.10282802  0.74429056     0.14100
C1417       C  0.83572052  0.59158221  0.73183539    -0.15500
C1418       C  0.83496084  0.56661413  0.75726666    -0.30600
H1419       H  0.85019649  0.58644320  0.70772309     0.13500
H1420       H  0.82246028  0.57238455  0.78229843     0.14100
C1421       C  0.73516012  0.85403577  0.59211957    -0.15500
C1422       C  0.74991931  0.84223002  0.56227082    -0.30600
H1423       H  0.71783701  0.87668100  0.59069692     0.13500
H1424       H  0.76451860  0.81769552  0.56285111     0.14100
C1425       C  0.59199911  0.74522754  0.84758919    -0.15500
C1426       C  0.56294730  0.75977665  0.83327039    -0.30600
H1427       H  0.58943190  0.72775161  0.87035059     0.13500
H1428       H  0.56481247  0.77433762  0.80847113     0.14100
C1429       C  0.64999990  0.90720688  0.75292168    -0.15500
C1430       C  0.66605298  0.93503907  0.73738023    -0.30600
H1431       H  0.62737232  0.91154305  0.76976031     0.13500
H1432       H  0.69064983  0.93121210  0.72342743     0.14100
C1433       C  0.75539860  0.64911910  0.89894921    -0.15500
C1434       C  0.74378951  0.66146256  0.93018843    -0.30600
H1435       H  0.77369476  0.62723465  0.89915029     0.13500
H1436       H  0.72446123  0.68239491  0.93089436     0.14100
C1437       C  0.89356974  0.75490521  0.64350824    -0.15500
C1438       C  0.92415699  0.74352483  0.65790483    -0.30600
H1439       H  0.89450145  0.77215704  0.62042668     0.13500
H1440       H  0.92419602  0.72550500  0.68037247     0.14100
loop_ 
_geom_bond_atom_site_label_1 
_geom_bond_atom_site_label_2 
_geom_bond_distance 
_geom_bond_site_symmetry_2 
_ccdc_geom_bond_type 
O1           Mg3   2.144       .  S
O1           Mg9   2.131       .  S
O1           C36   1.239       .  S
C2           O15   1.240       .  S
C2           O39   1.275       .  A
C2           H41   1.081       .  S
Mg3          O32   2.126       .  S
Mg3          O47   2.355       .  S
Mg3          O43   2.258       .  S
Mg3          O14   2.308       .  S
O4          Mg46   2.130       .  S
O4          Mg29   2.163       .  S
O4           C25   1.239       .  S
O5           C36   1.274       .  A
O5          Mg29   2.309       .  S
C6            O8   1.271       .  A
C6           O20   1.282       .  A
C6         C1417   1.489       .  S
O7           C35   1.273       .  A
O7           Mg9   2.306       .  S
O8          Mg40   2.262       .  S
Mg9          O15   2.150       .  S
Mg9          O23   2.264       .  S
Mg9          O11   2.331       .  S
C10          O48   1.272       .  A
C10          O16   1.280       .  A
C10        C1433   1.482       .  S
O11          C18   1.277       .  A
H12          C25   1.081       .  S
C13          O27   1.240       .  S
C13          O28   1.275       .  A
C13          H38   1.081       .  S
O14          C37   1.273       .  A
O15         Mg29   2.132       .  S
O16         Mg46   2.370       .  S
C17          O30   1.273       .  A
C17          O22   1.278       .  A
C17        C1425   1.480       .  S
C18          O45   1.274       .  A
C18        C1429   1.484       .  S
Mg19         O26   2.136       .  S
Mg19         O27   2.127       .  S
Mg19         O20   2.366       .  S
Mg19         O21   2.320       .  S
Mg19         O48   2.257       .  S
O21          C25   1.275       .  A
O22         Mg29   2.343       .  S
O23          C42   1.271       .  A
O24          C44   1.277       .  A
O24         Mg40   2.349       .  S
O26         Mg40   2.131       .  S
O26          C37   1.239       .  S
O27         Mg46   2.160       .  S
O28         Mg40   2.312       .  S
Mg29         O45   2.291       .  S
O30         Mg46   2.269       .  S
H31          C36   1.081       .  S
O32         Mg40   2.149       .  S
O32          C35   1.238       .  S
H33          C35   1.081       .  S
H34          C37   1.081       .  S
O39         Mg46   2.316       .  S
C42          O47   1.280       .  A
C42        C1421   1.483       .  S
O43          C44   1.273       .  A
C44        C1437   1.476       .  S
C49          C50   1.527       .  S
C49          C55   1.521       .  S
C49          C53   1.546       .  S
C49        C1413   1.518       .  S
C50          H57   1.086       .  S
C50          C51   1.368       .  D
C51          C52   1.551   1_545  S
C51        C1406   1.502   1_545  S
C52          C56   1.558   1_565  S
C52          C54   1.543       .  S
C52          H58   1.110       .  S
C53          H59   1.086   1_545  S
C53          C54   1.375   1_545  D
C54        C1430   1.491       .  S
C55          H60   1.085       .  S
C55          C56   1.362       .  D
C56        C1409   1.495       .  S
O61         Mg63   2.157       .  S
O61         Mg69   2.172       .  S
O61          C96   1.242       .  S
C62          O75   1.241       .  S
C62          O99   1.276       .  A
C62         H101   1.081       .  S
Mg63         O92   2.169       .  S
Mg63        O107   2.292       .  S
Mg63        O103   2.293       .  S
Mg63         O74   2.278       .  S
O64        Mg106   2.137       .  S
O64         Mg89   2.155       .  S
O64          C85   1.238       .  S
O65          C96   1.276       .  A
O65         Mg89   2.311       .  S
C66          O68   1.272       .  A
C66          O80   1.278       .  A
C66        C1414   1.474       .  S
O67          C95   1.267       .  A
O67         Mg69   2.285       .  S
O68        Mg100   2.267       .  S
Mg69         O75   2.133       .  S
Mg69         O83   2.280       .  S
Mg69         O71   2.302       .  S
C70         O108   1.272       .  A
C70          O76   1.283       .  A
C70        C1389   1.483       .  S
O71          C78   1.275       .  A
H72          C85   1.081       .  S
C73          O87   1.238       .  S
C73          O88   1.271       .  A
C73          H98   1.081       .  S
O74          C97   1.267       .  A
O75         Mg89   2.151       .  S
O76        Mg106   2.358       .  S
C77          O90   1.275       .  A
C77          O82   1.279       .  A
C77        C1393   1.480       .  S
C78         O105   1.277       .  A
C78        C1385   1.487       .  S
Mg79         O86   2.110       .  S
Mg79         O87   2.148       .  S
Mg79         O80   2.321       .  S
Mg79         O81   2.305       .  S
Mg79        O108   2.242       .  S
O81          C85   1.273       .  A
O82         Mg89   2.335       .  S
O83         C102   1.274       .  A
O84         C104   1.273       .  A
O84        Mg100   2.284       .  S
O86        Mg100   2.149       .  S
O86          C97   1.236       .  S
O87        Mg106   2.146       .  S
O88        Mg100   2.292       .  S
Mg89        O105   2.326       .  S
O90        Mg106   2.307       .  S
H91          C96   1.081       .  S
O92        Mg100   2.121       .  S
O92          C95   1.235       .  S
H93          C95   1.081       .  S
H94          C97   1.081       .  S
O99        Mg106   2.322       .  S
C102        O107   1.274       .  A
C102       C1397   1.471       .  S
O103        C104   1.276       .  A
C104       C1401   1.472       .  S
C109        C110   1.526       .  S
C109        C115   1.530       .  S
C109        C113   1.539       .  S
C109       C1381   1.519       .  S
C110        H117   1.085       .  S
C110        C111   1.369       .  D
C111        C112   1.558       .  S
C111       C1386   1.508       .  S
C112        C116   1.553       .  S
C112        C114   1.552       .  S
C112        H118   1.106       .  S
C113        H119   1.086       .  S
C113        C114   1.373       .  D
C114       C1377   1.495       .  S
C115        H120   1.087       .  S
C115        C116   1.359       .  D
C116       C1418   1.489       .  S
C121        C122   1.524       .  S
C121        C127   1.532       .  S
C121        C125   1.543       .  S
C121       C1373   1.524       .  S
C122        H129   1.085       .  S
C122        C123   1.366       .  D
C123        C124   1.551       .  S
C123       C1366   1.494       .  S
C124        C128   1.549       .  S
C124        C126   1.545       .  S
C124        H130   1.110       .  S
C125        H131   1.086       .  S
C125        C126   1.372       .  D
C126       C1422   1.492       .  S
C127        H132   1.082       .  S
C127        C128   1.369       .  D
C128       C1369   1.501       .  S
O133       Mg135   2.139       .  S
O133       Mg141   2.129       .  S
O133        C168   1.239       .  S
C134        O147   1.238       .  S
C134        O171   1.272       .  A
C134        H173   1.081       .  S
Mg135       O164   2.144       .  S
Mg135       O179   2.382       .  S
Mg135       O175   2.284       .  S
Mg135       O146   2.312       .  S
O136       Mg178   2.148       .  S
O136       Mg161   2.132       .  S
O136        C157   1.237       .  S
O137        C168   1.273       .  A
O137       Mg161   2.303       .  S
C138        O140   1.274       .  A
C138        O152   1.278       .  A
C138       C1361   1.487       .  S
O139        C167   1.271       .  A
O139       Mg141   2.299       .  S
O140       Mg172   2.252       .  S
Mg141       O147   2.142       .  S
Mg141       O155   2.245       .  S
Mg141       O143   2.309       .  S
C142        O180   1.276       .  A
C142        O148   1.278       .  A
C142       C1350   1.479       .  S
O143        C150   1.274       .  A
H144        C157   1.081       .  S
C145        O159   1.238       .  S
C145        O160   1.270       .  A
C145        H170   1.081       .  S
O146        C169   1.274       .  A
O147       Mg161   2.147       .  S
O148       Mg178   2.318       .  S
C149        O162   1.274       .  A
C149        O154   1.278       .  A
C149       C1374   1.481       .  S
C150        O177   1.274       .  A
C150       C1353   1.480       .  S
Mg151       O158   2.152       .  S
Mg151       O159   2.156       .  S
Mg151       O152   2.343       .  S
Mg151       O153   2.294       .  S
Mg151       O180   2.281       .  S
O153        C157   1.270       .  A
O154       Mg161   2.331       .  S
O155        C174   1.271       .  A
O156        C176   1.275       .  A
O156       Mg172   2.298       .  S
O158       Mg172   2.144       .  S
O158        C169   1.240       .  S
O159       Mg178   2.125       .  S
O160       Mg172   2.289       .  S
Mg161       O177   2.264       .  S
O162       Mg178   2.265       .  S
H163        C168   1.081       .  S
O164       Mg172   2.132       .  S
O164        C167   1.238       .  S
H165        C167   1.081       .  S
H166        C169   1.081       .  S
O171       Mg178   2.298       .  S
C174        O179   1.282       .  A
C174       C1357   1.479       .  S
O175        C176   1.275       .  A
C176       C1345   1.475       .  S
C181        C182   1.515       .  S
C181        C187   1.525   1_554  S
C181        C185   1.542       .  S
C181       C1337   1.506       .  S
C182        H189   1.085       .  S
C182        C183   1.364       .  D
C183        C184   1.553   1_554  S
C183       C1346   1.492       .  S
C184        C188   1.552       .  S
C184        C186   1.545   1_556  S
C184        H190   1.109       .  S
C185        H191   1.086       .  S
C185        C186   1.370       .  D
C186       C1341   1.486       .  S
C187        H192   1.086       .  S
C187        C188   1.368       .  D
C188       C1434   1.502       .  S
C193        C194   1.521       .  S
C193        C199   1.520       .  S
C193        C197   1.542       .  S
C193       C1354   1.515       .  S
C194        H201   1.085       .  S
C194        C195   1.366       .  D
C195        C196   1.553       .  S
C195       C1329   1.498       .  S
C196        C200   1.545       .  S
C196        C198   1.544       .  S
C196        H202   1.106       .  S
C197        H203   1.086       .  S
C197        C198   1.376       .  D
C198       C1325   1.489       .  S
C199        H204   1.087       .  S
C199        C200   1.364       .  D
C200       C1333   1.489       .  S
C205        C206   1.522       .  S
C205        C211   1.523       .  S
C205        C209   1.541       .  S
C205       C1309   1.512       .  S
C206        H213   1.086       .  S
C206        C207   1.364       .  D
C207        C208   1.553   1_565  S
C207       C1317   1.491   1_565  S
C208        C212   1.553   1_545  S
C208        C210   1.551       .  S
C208        H214   1.109       .  S
C209        H215   1.086       .  S
C209        C210   1.374   1_565  D
C210       C1313   1.495       .  S
C211        H216   1.087       .  S
C211        C212   1.358       .  D
C212       C1322   1.482       .  S
C217        C218   1.530       .  S
C217        C223   1.529       .  S
C217        C221   1.539       .  S
C217       C1402   1.515       .  S
C218        H225   1.087       .  S
C218        C219   1.366       .  D
C219        C220   1.547   1_556  S
C219       C1301   1.484       .  S
C220        C224   1.536   1_554  S
C220        C222   1.540       .  S
C220        H226   1.111       .  S
C221        H227   1.086       .  S
C221        C222   1.375   1_556  D
C222       C1297   1.481       .  S
C223        H228   1.088       .  S
C223        C224   1.358       .  D
C224       C1305   1.472       .  S
C229        C230   1.533       .  S
C229        C235   1.522       .  S
C229        C233   1.547       .  S
C229       C1281   1.523       .  S
C230        H237   1.083       .  S
C230        C231   1.368       .  D
C231        C232   1.539       .  S
C231       C1293   1.490       .  S
C232        C236   1.545       .  S
C232        C234   1.538       .  S
C232        H238   1.111       .  S
C233        H239   1.085       .  S
C233        C234   1.378       .  D
C234       C1285   1.487       .  S
C235        H240   1.087       .  S
C235        C236   1.359       .  D
C236       C1289   1.479       .  S
C241        C242   1.539       .  S
C241        C247   1.539       .  S
C241        C245   1.549       .  S
C241       C1273   1.521       .  S
C242        H249   1.083       .  S
C242        C243   1.367       .  D
C243        C244   1.550       .  S
C243       C1394   1.484       .  S
C244        C248   1.538       .  S
C244        C246   1.532       .  S
C244        H250   1.109       .  S
C245        H251   1.085       .  S
C245        C246   1.373       .  D
C246       C1277   1.487       .  S
C247        H252   1.087       .  S
C247        C248   1.359       .  D
C248       C1269   1.493       .  S
C253        C254   1.525       .  S
C253        C259   1.530       .  S
C253        C257   1.539       .  S
C253       C1262   1.515       .  S
C254        H261   1.087       .  S
C254        C255   1.366       .  D
C255        C256   1.549       .  S
C255       C1358   1.496       .  S
C256        C260   1.550       .  S
C256        C258   1.542       .  S
C256        H262   1.108       .  S
C257        H263   1.086       .  S
C257        C258   1.370       .  D
C258       C1257   1.479       .  S
C259        H264   1.084       .  S
C259        C260   1.368       .  D
C260       C1265   1.499       .  S
C265        C266   1.528       .  S
C265        C271   1.525       .  S
C265        C269   1.551       .  S
C265       C1245   1.520       .  S
C266        H273   1.087       .  S
C266        C267   1.358       .  D
C267        C268   1.536       .  S
C267       C1241   1.472       .  S
C268        C272   1.544       .  S
C268        C270   1.537       .  S
C268        H274   1.111       .  S
C269        H275   1.085       .  S
C269        C270   1.382       .  D
C270       C1250   1.486       .  S
C271        H276   1.087       .  S
C271        C272   1.359       .  D
C272       C1253   1.477       .  S
C277        C278   1.526       .  S
C277        C283   1.529   1_655  S
C277        C281   1.550       .  S
C277       C1233   1.521       .  S
C278        H285   1.088       .  S
C278        C279   1.357       .  D
C279        C280   1.544       .  S
C279       C1362   1.481       .  S
C280        C284   1.545   1_655  S
C280        C282   1.538       .  S
C280        H286   1.111       .  S
C281        H287   1.085       .  S
C281        C282   1.378       .  D
C282       C1237   1.483       .  S
C283        H288   1.087       .  S
C283        C284   1.363       .  D
C284       C1229   1.477       .  S
O289       Mg291   2.131       .  S
O289       Mg297   2.155       .  S
O289        C324   1.238       .  S
C290        O303   1.237       .  S
C290        O327   1.269       .  A
C290        H329   1.081       .  S
Mg291       O320   2.154       .  S
Mg291       O335   2.316       .  S
Mg291       O331   2.258       .  S
Mg291       O302   2.295       .  S
O292       Mg334   2.154       .  S
O292       Mg317   2.136       .  S
O292        C313   1.240       .  S
O293        C324   1.271       .  A
O293       Mg317   2.295       .  S
C294        O296   1.276       .  A
C294        O308   1.280       .  A
C294       C1217   1.483       .  S
O295        C323   1.269       .  A
O295       Mg297   2.288       .  S
O296       Mg328   2.277       .  S
Mg297       O303   2.112       .  S
Mg297       O311   2.246       .  S
Mg297       O299   2.290       .  S
C298        O336   1.276       .  A
C298        O304   1.273       .  A
C298       C1221   1.476       .  S
O299        C306   1.273       .  A
H300        C313   1.081       .  S
C301        O315   1.237       .  S
C301        O316   1.270       .  A
C301        H326   1.081       .  S
O302        C325   1.271       .  A
O303       Mg317   2.150       .  S
O304       Mg334   2.292       .  S
C305        O318   1.273       .  A
C305        O310   1.278       .  A
C305       C1326   1.477       .  S
C306        O333   1.275       .  A
C306       C1254   1.470       .  S
Mg307       O314   2.140       .  S
Mg307       O315   2.147       .  S
Mg307       O308   2.332       .  S
Mg307       O309   2.300       .  S
Mg307       O336   2.291       .  S
O309        C313   1.273       .  A
O310       Mg317   2.323       .  S
O311        C330   1.271       .  A
O312        C332   1.279       .  A
O312       Mg328   2.327       .  S
O314       Mg328   2.155       .  S
O314        C325   1.238       .  S
O315       Mg334   2.127       .  S
O316       Mg328   2.293       .  S
Mg317       O333   2.279       .  S
O318       Mg334   2.257       .  S
H319        C324   1.081       .  S
O320       Mg328   2.132       .  S
O320        C323   1.237       .  S
H321        C323   1.081       .  S
H322        C325   1.081       .  S
O327       Mg334   2.286       .  S
C330        O335   1.276       .  A
C330       C1225   1.471       .  S
O331        C332   1.273       .  A
C332       C1230   1.476       .  S
C337        C338   1.528       .  S
C337        C343   1.525       .  S
C337        C341   1.543   1_556  S
C337       C1206   1.521       .  S
C338        H345   1.080       .  S
C338        C339   1.365   1_556  D
C339        C340   1.558       .  S
C339       C1210   1.503       .  S
C340        C344   1.551   1_554  S
C340        C342   1.544       .  S
C340        H346   1.107       .  S
C341        H347   1.086       .  S
C341        C342   1.374       .  D
C342       C1218   1.493       .  S
C343        H348   1.086       .  S
C343        C344   1.366       .  D
C344       C1213   1.499   1_556  S
C349        C350   1.527       .  S
C349        C355   1.526       .  S
C349        C353   1.544       .  S
C349       C1202   1.526       .  S
C350        H357   1.086       .  S
C350        C351   1.367       .  D
C351        C352   1.546       .  S
C351       C1197   1.490       .  S
C352        C356   1.545       .  S
C352        C354   1.540       .  S
C352        H358   1.108       .  S
C353        H359   1.086       .  S
C353        C354   1.376       .  D
C354       C1390   1.489       .  S
C355        H360   1.086       .  S
C355        C356   1.370       .  D
C356       C1193   1.494       .  S
O361       Mg363   2.109       .  S
O361       Mg369   2.146       .  S
O361        C396   1.236       .  S
C362        O375   1.239       .  S
C362        O399   1.273       .  A
C362        H401   1.081       .  S
Mg363       O392   2.135       .  S
Mg363       O407   2.261       .  S
Mg363       O403   2.227       .  S
Mg363       O374   2.304       .  S
O364       Mg406   2.130       .  S
O364       Mg389   2.167       .  S
O364        C385   1.239       .  S
O365        C396   1.268       .  A
O365       Mg389   2.287       .  S
C366        O368   1.270       .  A
C366        O380   1.282       .  A
C366       C1314   1.485       .  S
O367        C395   1.274       .  A
O367       Mg369   2.302       .  S
O368       Mg400   2.255       .  S
Mg369       O375   2.137       .  S
Mg369       O383   2.290       .  S
Mg369       O371   2.320       .  S
C370        O408   1.269       .  A
C370        O376   1.277       .  A
C370       C1189   1.468       .  S
O371        C378   1.277       .  A
H372        C385   1.081       .  S
C373        O387   1.239       .  S
C373        O388   1.275       .  A
C373        H398   1.081       .  S
O374        C397   1.272       .  A
O375       Mg389   2.149       .  S
O376       Mg406   2.341       .  S
C377        O390   1.274       .  A
C377        O382   1.279       .  A
C377       C1201   1.479       .  S
C378        O405   1.280       .  A
C378       C1286   1.487       .  S
Mg379       O386   2.128       .  S
Mg379       O387   2.135       .  S
Mg379       O380   2.374       .  S
Mg379       O381   2.324       .  S
Mg379       O408   2.246       .  S
O381        C385   1.275       .  A
O382       Mg389   2.347       .  S
O383        C402   1.274       .  A
O384        C404   1.276       .  A
O384       Mg400   2.335       .  S
O386       Mg400   2.122       .  S
O386        C397   1.238       .  S
O387       Mg406   2.180       .  S
O388       Mg400   2.323       .  S
Mg389       O405   2.305       .  S
O390       Mg406   2.283       .  S
H391        C396   1.081       .  S
O392       Mg400   2.137       .  S
O392        C395   1.240       .  S
H393        C395   1.081       .  S
H394        C397   1.081       .  S
O399       Mg406   2.302       .  S
C402        O407   1.268       .  A
C402       C1185   1.470       .  S
O403        C404   1.265       .  A
C404       C1182   1.466       .  S
C409        C410   1.528       .  S
C409        C415   1.532       .  S
C409        C413   1.542   1_655  S
C409       C1398   1.513       .  S
C410        H417   1.086       .  S
C410        C411   1.367   1_655  D
C411        C412   1.541       .  S
C411       C1173   1.492       .  S
C412        C416   1.541   1_455  S
C412        C414   1.541       .  S
C412        H418   1.109       .  S
C413        H419   1.086       .  S
C413        C414   1.370       .  D
C414       C1181   1.483       .  S
C415        H420   1.085       .  S
C415        C416   1.367       .  D
C416       C1177   1.486       .  S
O421       Mg423   2.145       .  S
O421       Mg429   2.132       .  S
O421        C456   1.238       .  S
C422        O435   1.240       .  S
C422        O459   1.275       .  A
C422        H461   1.081       .  S
Mg423       O452   2.136       .  S
Mg423       O467   2.306       .  S
Mg423       O463   2.231       .  S
Mg423       O434   2.292       .  S
O424       Mg466   2.142       .  S
O424       Mg449   2.135       .  S
O424        C445   1.239       .  S
O425        C456   1.273       .  A
O425       Mg449   2.313       .  S
C426        O428   1.280       .  A
C426        O440   1.276       .  A
C426       C1266   1.482       .  S
O427        C455   1.275       .  A
O427       Mg429   2.321       .  S
O428       Mg460   2.316       .  S
Mg429       O435   2.149       .  S
Mg429       O443   2.279       .  S
Mg429       O431   2.368       .  S
C430        O468   1.274       .  A
C430        O436   1.278       .  A
C430       C1270   1.488       .  S
O431        C438   1.279       .  A
H432        C445   1.081       .  S
C433        O447   1.238       .  S
C433        O448   1.271       .  A
C433        H458   1.081       .  S
O434        C457   1.270       .  A
O435       Mg449   2.124       .  S
O436       Mg466   2.337       .  S
C437        O450   1.273       .  A
C437        O442   1.274       .  A
C437       C1166   1.479       .  S
C438        O465   1.269       .  A
C438       C1161   1.475       .  S
Mg439       O446   2.124       .  S
Mg439       O447   2.141       .  S
Mg439       O440   2.301       .  S
Mg439       O441   2.296       .  S
Mg439       O468   2.269       .  S
O441        C445   1.272       .  A
O442       Mg449   2.313       .  S
O443        C462   1.273       .  A
O444        C464   1.281       .  A
O444       Mg460   2.368       .  S
O446       Mg460   2.151       .  S
O446        C457   1.237       .  S
O447       Mg466   2.126       .  S
O448       Mg460   2.292       .  S
Mg449       O465   2.240       .  S
O450       Mg466   2.262       .  S
H451        C456   1.081       .  S
O452       Mg460   2.168       .  S
O452        C455   1.239       .  S
H453        C455   1.081       .  S
H454        C457   1.081       .  S
O459       Mg466   2.315       .  S
C462        O467   1.273       .  A
C462       C1298   1.476       .  S
O463        C464   1.269       .  A
C464       C1169   1.471       .  S
C469        C470   1.530   1_545  S
C469        C475   1.531       .  S
C469        C473   1.544       .  S
C469       C1158   1.522       .  S
C470        H477   1.085       .  S
C470        C471   1.366       .  D
C471        C472   1.545   1_565  S
C471       C1349   1.492       .  S
C472        C476   1.547       .  S
C472        C474   1.539       .  S
C472        H478   1.111       .  S
C473        H479   1.086       .  S
C473        C474   1.372       .  D
C474       C1153   1.482   1_545  S
C475        H480   1.083       .  S
C475        C476   1.366       .  D
C476       C1162   1.492       .  S
C481        C482   1.524       .  S
C481        C487   1.525       .  S
C481        C485   1.544       .  S
C481       C1149   1.510       .  S
C482        H489   1.086       .  S
C482        C483   1.366       .  D
C483        C484   1.547   1_455  S
C483       C1145   1.484   1_455  S
C484        C488   1.541   1_655  S
C484        C486   1.533       .  S
C484        H490   1.111       .  S
C485        H491   1.086       .  S
C485        C486   1.374   1_455  D
C486       C1165   1.475       .  S
C487        H492   1.088       .  S
C487        C488   1.358       .  D
C488       C1142   1.474       .  S
O493       Mg495   2.146       .  S
O493       Mg501   2.140       .  S
O493        C528   1.238       .  S
C494        O507   1.239       .  S
C494        O531   1.272       .  A
C494        H533   1.081       .  S
Mg495       O524   2.166       .  S
Mg495       O539   2.315       .  S
Mg495       O535   2.276       .  S
Mg495       O506   2.290       .  S
O496       Mg538   2.149       .  S
O496       Mg521   2.133       .  S
O496        C517   1.237       .  S
O497        C528   1.273       .  A
O497       Mg521   2.307       .  S
C498        O500   1.278       .  A
C498        O512   1.275       .  A
C498       C1121   1.486       .  S
O499        C527   1.274       .  A
O499       Mg501   2.312       .  S
O500       Mg532   2.305       .  S
Mg501       O507   2.147       .  S
Mg501       O515   2.297       .  S
Mg501       O503   2.326       .  S
C502        O540   1.271       .  A
C502        O508   1.277       .  A
C502       C1150   1.469       .  S
O503        C510   1.279       .  A
H504        C517   1.081       .  S
C505        O519   1.237       .  S
C505        O520   1.269       .  A
C505        H530   1.081       .  S
O506        C529   1.269       .  A
O507       Mg521   2.160       .  S
O508       Mg538   2.311       .  S
C509        O522   1.274       .  A
C509        O514   1.282       .  A
C509       C1125   1.486       .  S
C510        O537   1.277       .  A
C510       C1133   1.485       .  S
Mg511       O518   2.122       .  S
Mg511       O519   2.161       .  S
Mg511       O512   2.307       .  S
Mg511       O513   2.288       .  S
Mg511       O540   2.249       .  S
O513        C517   1.270       .  A
O514       Mg521   2.348       .  S
O515        C534   1.276       .  A
O516        C536   1.275       .  A
O516       Mg532   2.289       .  S
O518       Mg532   2.155       .  S
O518        C529   1.236       .  S
O519       Mg538   2.134       .  S
O520       Mg532   2.288       .  S
Mg521       O537   2.296       .  S
O522       Mg538   2.274       .  S
H523        C528   1.081       .  S
O524       Mg532   2.156       .  S
O524        C527   1.240       .  S
H525        C527   1.081       .  S
H526        C529   1.081       .  S
O531       Mg538   2.298       .  S
C534        O539   1.275       .  A
C534       C1129   1.486       .  S
O535        C536   1.273       .  A
C536       C1137   1.470       .  S
C541        C542   1.521       .  S
C541        C547   1.525   1_554  S
C541        C545   1.540       .  S
C541       C1113   1.508       .  S
C542        H549   1.086       .  S
C542        C543   1.364       .  D
C543        C544   1.543       .  S
C543       C1138   1.488       .  S
C544        C548   1.541   1_554  S
C544        C546   1.542       .  S
C544        H550   1.108       .  S
C545        H551   1.086       .  S
C545        C546   1.373       .  D
C546       C1117   1.480   1_554  S
C547        H552   1.086       .  S
C547        C548   1.364       .  D
C548       C1186   1.485       .  S
C553        C554   1.532       .  S
C553        C559   1.528   1_545  S
C553        C557   1.541   1_545  S
C553       C1105   1.519       .  S
C554        H561   1.085       .  S
C554        C555   1.370       .  D
C555        C556   1.549       .  S
C555       C1134   1.499       .  S
C556        C560   1.543   1_545  S
C556        C558   1.551   1_545  S
C556        H562   1.106       .  S
C557        H563   1.086       .  S
C557        C558   1.373       .  D
C558       C1110   1.496       .  S
C559        H564   1.087       .  S
C559        C560   1.356       .  D
C560       C1222   1.477       .  S
O565       Mg567   2.137       .  S
O565       Mg573   2.142   1_655  S
O565        C600   1.239   1_565  S
C566        O579   1.237   1_565  S
C566        O603   1.269   1_565  A
C566        H605   1.081       .  S
Mg567       O596   2.142       .  S
Mg567       O611   2.335       .  S
Mg567       O607   2.279       .  S
Mg567       O578   2.303   1_565  S
O568       Mg610   2.157       .  S
O568       Mg593   2.134       .  S
O568        C589   1.238   1_455  S
O569        C600   1.273       .  A
O569       Mg593   2.300   1_655  S
C570        O572   1.273       .  A
C570        O584   1.278       .  A
C570       C1157   1.479       .  S
O571        C599   1.270   1_455  A
O571       Mg573   2.291       .  S
O572       Mg604   2.253   1_545  S
Mg573       O579   2.120   1_565  S
Mg573       O587   2.257   1_455  S
Mg573       O575   2.309       .  S
C574        O612   1.274   1_455  A
C574        O580   1.274       .  A
C574       C1146   1.471       .  S
O575        C582   1.277       .  A
H576        C589   1.081       .  S
C577        O591   1.237       .  S
C577        O592   1.270   1_455  A
C577        H602   1.081       .  S
O578        C601   1.274       .  A
O579       Mg593   2.145       .  S
O580       Mg610   2.295       .  S
C581        O594   1.274       .  A
C581        O586   1.278       .  A
C581       C1102   1.478       .  S
C582        O609   1.275   1_565  A
C582       C1318   1.477       .  S
Mg583       O590   2.142       .  S
Mg583       O591   2.156   1_655  S
Mg583       O584   2.334       .  S
Mg583       O585   2.297       .  S
Mg583       O612   2.275       .  S
O585        C589   1.272       .  A
O586       Mg593   2.323       .  S
O587        C606   1.275       .  A
O588        C608   1.277       .  A
O588       Mg604   2.317       .  S
O590       Mg604   2.151   1_545  S
O590        C601   1.240       .  S
O591       Mg610   2.132       .  S
O592       Mg604   2.293   1_545  S
Mg593       O609   2.284       .  S
O594       Mg610   2.270       .  S
H595        C600   1.081       .  S
O596       Mg604   2.117       .  S
O596        C599   1.238       .  S
H597        C599   1.081       .  S
H598        C601   1.081       .  S
O603       Mg610   2.287       .  S
C606        O611   1.278       .  A
C606       C1097   1.484       .  S
O607        C608   1.274       .  A
C608       C1365   1.479       .  S
O613       Mg615   2.142       .  S
O613       Mg621   2.145   1_556  S
O613        C648   1.238       .  S
C614        O627   1.239       .  S
C614        O651   1.273   1_465  A
C614        H653   1.081       .  S
Mg615       O644   2.151   1_565  S
Mg615       O659   2.303       .  S
Mg615       O655   2.274       .  S
Mg615       O626   2.283       .  S
O616       Mg658   2.148   1_565  S
O616       Mg641   2.131       .  S
O616        C637   1.238       .  S
O617        C648   1.272   1_654  A
O617       Mg641   2.306       .  S
C618        O620   1.274   1_655  A
C618        O632   1.275       .  A
C618       C1178   1.475       .  S
O619        C647   1.275       .  A
O619       Mg621   2.309   1_545  S
O620       Mg652   2.268       .  S
Mg621       O627   2.154       .  S
Mg621       O635   2.312       .  S
Mg621       O623   2.372       .  S
C622        O660   1.271   1_554  A
C622        O628   1.277       .  A
C622       C1306   1.478       .  S
O623        C630   1.284       .  A
H624        C637   1.081       .  S
C625        O639   1.237       .  S
C625        O640   1.270   1_655  A
C625        H650   1.081       .  S
O626        C649   1.268   1_465  A
O627       Mg641   2.146   1_455  S
O628       Mg658   2.335       .  S
C629        O642   1.271   1_565  A
C629        O634   1.279       .  A
C629       C1154   1.474       .  S
C630        O657   1.275   1_455  A
C630       C1238   1.491       .  S
Mg631       O638   2.112       .  S
Mg631       O639   2.144   1_556  S
Mg631       O632   2.307       .  S
Mg631       O633   2.292   1_545  S
Mg631       O660   2.223       .  S
O633        C637   1.271   1_556  A
O634       Mg641   2.344       .  S
O635        C654   1.278   1_554  A
O636        C656   1.275       .  A
O636       Mg652   2.328       .  S
O638       Mg652   2.152   1_655  S
O638        C649   1.237       .  S
O639       Mg658   2.134       .  S
O640       Mg652   2.292   1_554  S
Mg641       O657   2.255       .  S
O642       Mg658   2.250       .  S
H643        C648   1.081       .  S
O644       Mg652   2.147       .  S
O644        C647   1.241   1_556  S
H645        C647   1.081       .  S
H646        C649   1.081       .  S
O651       Mg658   2.301       .  S
C654        O659   1.276       .  A
C654       C1214   1.483       .  S
O655        C656   1.276   1_565  A
C656       C1321   1.485       .  S
O661       Mg663   2.160       .  S
O661       Mg669   2.132       .  S
O661        C696   1.240       .  S
C662        O675   1.237       .  S
C662        O699   1.270   1_545  A
C662        H701   1.081       .  S
Mg663       O692   2.134   1_545  S
Mg663       O707   2.344       .  S
Mg663       O703   2.247       .  S
Mg663       O674   2.302       .  S
O664       Mg706   2.155   1_545  S
O664       Mg689   2.127       .  S
O664        C685   1.238       .  S
O665        C696   1.275       .  A
O665       Mg689   2.316       .  S
C666        O668   1.276       .  A
C666        O680   1.270       .  A
C666       C1334   1.474       .  S
O667        C695   1.272   1_545  A
O667       Mg669   2.302       .  S
O668       Mg700   2.308       .  S
Mg669       O675   2.126       .  S
Mg669       O683   2.230       .  S
Mg669       O671   2.287       .  S
C670        O708   1.269       .  A
C670        O676   1.279       .  A
C670       C1370   1.479       .  S
O671        C678   1.271       .  A
H672        C685   1.081       .  S
C673        O687   1.240       .  S
C673        O688   1.275       .  A
C673        H698   1.081       .  S
O674        C697   1.271   1_545  A
O675       Mg689   2.147       .  S
O676       Mg706   2.370       .  S
C677        O690   1.275   1_545  A
C677        O682   1.281       .  A
C677       C1410   1.479       .  S
C678        O705   1.274       .  A
C678       C1198   1.477       .  S
Mg679       O686   2.130       .  S
Mg679       O687   2.126       .  S
Mg679       O680   2.270       .  S
Mg679       O681   2.291   1_565  S
Mg679       O708   2.240       .  S
O681        C685   1.271       .  A
O682       Mg689   2.335       .  S
O683        C702   1.267       .  A
O684        C704   1.283       .  A
O684       Mg700   2.367       .  S
O686       Mg700   2.145       .  S
O686        C697   1.236       .  S
O687       Mg706   2.148       .  S
O688       Mg700   2.311       .  S
Mg689       O705   2.295       .  S
O690       Mg706   2.267       .  S
H691        C696   1.081       .  S
O692       Mg700   2.142       .  S
O692        C695   1.237       .  S
H693        C695   1.081       .  S
H694        C697   1.081       .  S
O699       Mg706   2.297       .  S
C702        O707   1.275       .  A
C702       C1093   1.468       .  S
O703        C704   1.271   1_545  A
C704       C1109   1.474       .  S
C709        C710   1.523       .  S
C709        C715   1.523       .  S
C709        C713   1.545       .  S
C709       C1190   1.516       .  S
C710        H717   1.087       .  S
C710        C711   1.365       .  D
C711        C712   1.543       .  S
C711       C1094   1.488       .  S
C712        C716   1.554       .  S
C712        C714   1.544       .  S
C712        H718   1.110       .  S
C713        H719   1.086       .  S
C713        C714   1.376       .  D
C714       C1126   1.491       .  S
C715        H720   1.085       .  S
C715        C716   1.364       .  D
C716       C1101   1.492       .  S
O721       Mg723   2.138   1_545  S
O721       Mg729   2.170       .  S
O721        C756   1.235       .  S
C722        O735   1.238       .  S
C722        O759   1.271   1_545  A
C722        H761   1.081       .  S
Mg723       O752   2.164       .  S
Mg723       O767   2.312       .  S
Mg723       O763   2.294       .  S
Mg723       O734   2.297   1_554  S
O724       Mg766   2.163   1_545  S
O724       Mg749   2.145   1_556  S
O724        C745   1.238       .  S
O725        C756   1.268       .  A
O725       Mg749   2.285       .  S
C726        O728   1.278       .  A
C726        O740   1.279       .  A
C726       C1085   1.485       .  S
O727        C755   1.270       .  A
O727       Mg729   2.291   1_565  S
O728       Mg760   2.296       .  S
Mg729       O735   2.143       .  S
Mg729       O743   2.275       .  S
Mg729       O731   2.308       .  S
C730        O768   1.276       .  A
C730        O736   1.278       .  A
C730       C1405   1.485       .  S
O731        C738   1.275       .  A
H732        C745   1.081       .  S
C733        O747   1.239       .  S
C733        O748   1.273       .  A
C733        H758   1.081       .  S
O734        C757   1.271       .  A
O735       Mg749   2.172       .  S
O736       Mg766   2.317       .  S
C737        O750   1.275       .  A
C737        O742   1.273   1_556  A
C737       C1302   1.473       .  S
C738        O765   1.274       .  A
C738       C1089   1.478       .  S
Mg739       O746   2.148       .  S
Mg739       O747   2.162       .  S
Mg739       O740   2.325       .  S
Mg739       O741   2.299   1_565  S
Mg739       O768   2.310       .  S
O741        C745   1.271       .  A
O742       Mg749   2.293       .  S
O743        C762   1.273       .  A
O744        C764   1.282   1_556  A
O744       Mg760   2.337       .  S
O746       Mg760   2.153       .  S
O746        C757   1.237       .  S
O747       Mg766   2.142       .  S
O748       Mg760   2.302       .  S
Mg749       O765   2.284       .  S
O750       Mg766   2.291   1_545  S
H751        C756   1.081       .  S
O752       Mg760   2.144   1_554  S
O752        C755   1.237       .  S
H753        C755   1.081       .  S
H754        C757   1.081       .  S
O759       Mg766   2.296   1_554  S
C762        O767   1.277   1_545  A
C762       C1106   1.473       .  S
O763        C764   1.275       .  A
C764       C1209   1.485       .  S
C769        C770   1.529       .  S
C769        C775   1.530       .  S
C769        C773   1.538       .  S
C769       C1090   1.520       .  S
C770        H777   1.087       .  S
C770        C771   1.361       .  D
C771        C772   1.551       .  S
C771       C1130   1.482       .  S
C772        C776   1.543       .  S
C772        C774   1.544       .  S
C772        H778   1.110       .  S
C773        H779   1.086       .  S
C773        C774   1.370       .  D
C774       C1081   1.485       .  S
C775        H780   1.086       .  S
C775        C776   1.371       .  D
C776       C1170   1.490       .  S
O781       Mg783   2.130   1_556  S
O781       Mg789   2.152       .  S
O781        C816   1.239       .  S
C782        O795   1.236       .  S
C782        O819   1.269       .  A
C782        H821   1.081       .  S
Mg783       O812   2.139       .  S
Mg783       O827   2.299       .  S
Mg783       O823   2.252       .  S
Mg783       O794   2.301       .  S
O784       Mg826   2.160       .  S
O784       Mg809   2.131       .  S
O784        C805   1.239       .  S
O785        C816   1.272       .  A
O785       Mg809   2.296       .  S
C786        O788   1.273       .  A
C786        O800   1.275       .  A
C786       C1258   1.470       .  S
O787        C815   1.270       .  A
O787       Mg789   2.291   1_554  S
O788       Mg820   2.251       .  S
Mg789       O795   2.113       .  S
Mg789       O803   2.246       .  S
Mg789       O791   2.286       .  S
C790        O828   1.275       .  A
C790        O796   1.275   1_554  A
C790       C1342   1.478   1_554  S
O791        C798   1.273       .  A
H792        C805   1.081       .  S
C793        O807   1.237       .  S
C793        O808   1.271       .  A
C793        H818   1.081       .  S
O794        C817   1.272       .  A
O795       Mg809   2.149       .  S
O796       Mg826   2.302       .  S
C797        O810   1.274       .  A
C797        O802   1.278       .  A
C797       C1077   1.476       .  S
C798        O825   1.275       .  A
C798       C1290   1.471       .  S
Mg799       O806   2.149       .  S
Mg799       O807   2.148       .  S
Mg799       O800   2.304       .  S
Mg799       O801   2.294   1_554  S
Mg799       O828   2.284       .  S
O801        C805   1.271       .  A
O802       Mg809   2.313       .  S
O803        C822   1.271       .  A
O804        C824   1.279       .  A
O804       Mg820   2.342       .  S
O806       Mg820   2.156       .  S
O806        C817   1.238       .  S
O807       Mg826   2.134   1_554  S
O808       Mg820   2.299       .  S
Mg809       O825   2.286       .  S
O810       Mg826   2.278       .  S
H811        C816   1.081       .  S
O812       Mg820   2.118       .  S
O812        C815   1.237       .  S
H813        C815   1.081       .  S
H814        C817   1.081       .  S
O819       Mg826   2.286       .  S
C822        O827   1.274   1_556  A
C822       C1118   1.469   1_556  S
O823        C824   1.272       .  A
C824       C1082   1.484       .  S
O829       Mg831   2.139       .  S
O829       Mg837   2.119       .  S
O829        C864   1.237       .  S
C830        O843   1.239       .  S
C830        O867   1.272   1_455  A
C830        H869   1.081       .  S
Mg831       O860   2.147   1_455  S
Mg831       O875   2.367       .  S
Mg831       O871   2.235       .  S
Mg831       O842   2.301       .  S
O832       Mg874   2.148   1_455  S
O832       Mg857   2.142       .  S
O832        C853   1.238       .  S
O833        C864   1.272       .  A
O833       Mg857   2.305       .  S
C834        O836   1.276       .  A
C834        O848   1.275       .  A
C834       C1278   1.486       .  S
O835        C863   1.274   1_455  A
O835       Mg837   2.310       .  S
O836       Mg868   2.288       .  S
Mg837       O843   2.139       .  S
Mg837       O851   2.236       .  S
Mg837       O839   2.306       .  S
C838        O876   1.269       .  A
C838        O844   1.280       .  A
C838       C1378   1.474       .  S
O839        C846   1.273       .  A
H840        C853   1.081       .  S
C841        O855   1.239       .  S
C841        O856   1.274       .  A
C841        H866   1.081       .  S
O842        C865   1.271   1_455  A
O843       Mg857   2.154       .  S
O844       Mg874   2.357       .  S
C845        O858   1.275   1_455  A
C845        O850   1.281       .  A
C845       C1069   1.483       .  S
C846        O873   1.278       .  A
C846       C1249   1.486       .  S
Mg847       O854   2.137       .  S
Mg847       O855   2.133       .  S
Mg847       O848   2.318       .  S
Mg847       O849   2.305       .  S
Mg847       O876   2.246       .  S
O849        C853   1.272   1_655  A
O850       Mg857   2.345       .  S
O851        C870   1.268       .  A
O852        C872   1.278       .  A
O852       Mg868   2.343       .  S
O854       Mg868   2.143       .  S
O854        C865   1.237       .  S
O855       Mg874   2.159       .  S
O856       Mg868   2.311       .  S
Mg857       O873   2.305       .  S
O858       Mg874   2.282       .  S
H859        C864   1.081       .  S
O860       Mg868   2.157       .  S
O860        C863   1.240       .  S
H861        C863   1.081       .  S
H862        C865   1.081       .  S
O867       Mg874   2.299       .  S
C870        O875   1.278       .  A
C870       C1073   1.476       .  S
O871        C872   1.273   1_455  A
C872       C1141   1.480       .  S
O877       Mg879   2.104       .  S
O877       Mg885   2.158   1_655  S
O877        C912   1.236       .  S
C878        O891   1.237       .  S
C878        O915   1.269       .  A
C878        H917   1.081       .  S
Mg879       O908   2.153       .  S
Mg879       O923   2.272       .  S
Mg879       O919   2.217       .  S
Mg879       O890   2.293   1_556  S
O880       Mg922   2.167       .  S
O880       Mg905   2.151   1_554  S
O880        C901   1.238       .  S
O881        C912   1.267       .  A
O881       Mg905   2.281   1_655  S
C882        O884   1.276       .  A
C882        O896   1.278   1_655  A
C882       C1234   1.477       .  S
O883        C911   1.271   1_455  A
O883       Mg885   2.293       .  S
O884       Mg916   2.291       .  S
Mg885       O891   2.125       .  S
Mg885       O899   2.297   1_455  S
Mg885       O887   2.276       .  S
C886        O924   1.276       .  A
C886        O892   1.275       .  A
C886       C1065   1.475       .  S
O887        C894   1.273       .  A
H888        C901   1.081       .  S
C889        O903   1.237       .  S
C889        O904   1.270       .  A
C889        H914   1.081       .  S
O890        C913   1.270       .  A
O891       Mg905   2.173       .  S
O892       Mg922   2.304       .  S
C893        O906   1.272       .  A
C893        O898   1.275   1_554  A
C893       C1114   1.462       .  S
C894        O921   1.278       .  A
C894       C1174   1.475       .  S
Mg895       O902   2.130   1_455  S
Mg895       O903   2.156       .  S
Mg895       O896   2.316       .  S
Mg895       O897   2.296       .  S
Mg895       O924   2.290       .  S
O897        C901   1.271       .  A
O898       Mg905   2.291       .  S
O899        C918   1.274       .  A
O900        C920   1.281       .  A
O900       Mg916   2.335   1_556  S
O902       Mg916   2.160       .  S
O902        C913   1.237       .  S
O903       Mg922   2.130       .  S
O904       Mg916   2.294   1_455  S
Mg905       O921   2.313       .  S
O906       Mg922   2.255       .  S
H907        C912   1.081       .  S
O908       Mg916   2.145   1_556  S
O908        C911   1.238       .  S
H909        C911   1.081       .  S
H910        C913   1.081       .  S
O915       Mg922   2.285   1_556  S
C918        O923   1.270       .  A
C918       C1382   1.471       .  S
O919        C920   1.266       .  A
C920       C1338   1.468       .  S
C925        C926   1.525       .  S
C925        C931   1.525       .  S
C925        C929   1.535       .  S
C925       C1226   1.510       .  S
C926        H933   1.087       .  S
C926        C927   1.367       .  D
C927        C928   1.548       .  S
C927       C1074   1.494       .  S
C928        C932   1.551       .  S
C928        C930   1.555       .  S
C928        H934   1.109       .  S
C929        H935   1.086       .  S
C929        C930   1.369       .  D
C930       C1122   1.492       .  S
C931        H936   1.087       .  S
C931        C932   1.363       .  D
C932       C1066   1.482       .  S
O937       Mg939   2.151       .  S
O937       Mg945   2.122       .  S
O937        C972   1.238       .  S
C938        O951   1.237       .  S
C938        O975   1.271       .  A
C938        H977   1.081       .  S
Mg939       O968   2.131       .  S
Mg939       O983   2.332       .  S
Mg939       O979   2.233       .  S
Mg939       O950   2.302       .  S
O940       Mg982   2.134       .  S
O940       Mg965   2.144       .  S
O940        C961   1.239       .  S
O941        C972   1.274       .  A
O941       Mg965   2.314       .  S
C942        O944   1.276       .  A
C942        O956   1.273       .  A
C942       C1274   1.480       .  S
O943        C971   1.274       .  A
O943       Mg945   2.315       .  S
O944       Mg976   2.305       .  S
Mg945       O951   2.127       .  S
Mg945       O959   2.230       .  S
Mg945       O947   2.334       .  S
C946        O984   1.268       .  A
C946        O952   1.275       .  A
C946       C1261   1.468       .  S
O947        C954   1.275       .  A
H948        C961   1.081       .  S
C949        O963   1.238       .  S
C949        O964   1.273       .  A
C949        H974   1.081       .  S
O950        C973   1.272       .  A
O951       Mg965   2.125       .  S
O952       Mg982   2.325       .  S
C953        O966   1.272       .  A
C953        O958   1.277       .  A
C953       C1330   1.475       .  S
C954        O981   1.270       .  A
C954       C1246   1.469       .  S
Mg955       O962   2.133       .  S
Mg955       O963   2.132       .  S
Mg955       O956   2.293       .  S
Mg955       O957   2.307       .  S
Mg955       O984   2.253       .  S
O957        C961   1.273       .  A
O958       Mg965   2.344       .  S
O959        C978   1.267       .  A
O960        C980   1.280       .  A
O960       Mg976   2.362       .  S
O962       Mg976   2.148       .  S
O962        C973   1.237       .  S
O963       Mg982   2.151       .  S
O964       Mg976   2.310       .  S
Mg965       O981   2.255       .  S
O966       Mg982   2.253       .  S
H967        C972   1.081       .  S
O968       Mg976   2.157       .  S
O968        C971   1.239       .  S
H969        C971   1.081       .  S
H970        C973   1.081       .  S
O975       Mg982   2.299       .  S
C978        O983   1.274       .  A
C978       C1294   1.468       .  S
O979        C980   1.269       .  A
C980       C1194   1.471       .  S
C985        C986   1.524   1_655  S
C985        C991   1.524       .  S
C985        C989   1.548       .  S
C985       C1098   1.520       .  S
C986        H993   1.086       .  S
C986        C987   1.364       .  D
C987        C988   1.552   1_455  S
C987       C1061   1.495       .  S
C988        C992   1.554       .  S
C988        C990   1.540       .  S
C988        H994   1.111       .  S
C989        H995   1.085       .  S
C989        C990   1.376       .  D
C990       C1070   1.488       .  S
C991        H996   1.086       .  S
C991        C992   1.366       .  D
C992       C1438   1.499       .  S
O997       Mg999   2.147       .  S
O997      Mg1005   2.144       .  S
O997       C1032   1.239       .  S
C998       O1011   1.238       .  S
C998       O1035   1.271       .  A
C998       H1037   1.081       .  S
Mg999      O1028   2.146       .  S
Mg999      O1043   2.313       .  S
Mg999      O1039   2.263       .  S
Mg999      O1010   2.289       .  S
O1000     Mg1042   2.141       .  S
O1000     Mg1025   2.148       .  S
O1000      C1021   1.239       .  S
O1001      C1032   1.274       .  A
O1001     Mg1025   2.306       .  S
C1002      O1004   1.273       .  A
C1002      O1016   1.279       .  A
C1002      C1057   1.477       .  S
O1003      C1031   1.271       .  A
O1003     Mg1005   2.296       .  S
O1004     Mg1036   2.248       .  S
Mg1005     O1011   2.117       .  S
Mg1005     O1019   2.253       .  S
Mg1005     O1007   2.324       .  S
C1006      O1044   1.274       .  A
C1006      O1012   1.277       .  A
C1006      C1282   1.483       .  S
O1007      C1014   1.278       .  A
H1008      C1021   1.081       .  S
C1009      O1023   1.236       .  S
C1009      O1024   1.269       .  A
C1009      H1034   1.081       .  S
O1010      C1033   1.271       .  A
O1011     Mg1025   2.143       .  S
O1012     Mg1042   2.325       .  S
C1013      O1026   1.272       .  A
C1013      O1018   1.277       .  A
C1013      C1242   1.476       .  S
C1014      O1041   1.274       .  A
C1014      C1062   1.481       .  S
Mg1015     O1022   2.127       .  S
Mg1015     O1023   2.137       .  S
Mg1015     O1016   2.333       .  S
Mg1015     O1017   2.304       .  S
Mg1015     O1044   2.265       .  S
O1017      C1021   1.273       .  A
O1018     Mg1025   2.334       .  S
O1019      C1038   1.274       .  A
O1020      C1040   1.275       .  A
O1020     Mg1036   2.312       .  S
O1022     Mg1036   2.156       .  S
O1022      C1033   1.238       .  S
O1023     Mg1042   2.118       .  S
O1024     Mg1036   2.286       .  S
Mg1025     O1041   2.283       .  S
O1026     Mg1042   2.227       .  S
H1027      C1032   1.081       .  S
O1028     Mg1036   2.124       .  S
O1028      C1031   1.237       .  S
H1029      C1031   1.081       .  S
H1030      C1033   1.081       .  S
O1035     Mg1042   2.297       .  S
C1038      O1043   1.275       .  A
C1038      C1310   1.478       .  S
O1039      C1040   1.274       .  A
C1040      C1205   1.476       .  S
C1045      C1046   1.528       .  S
C1045      C1051   1.536       .  S
C1045      C1049   1.546       .  S
C1045      C1058   1.522       .  S
C1046      H1053   1.087       .  S
C1046      C1047   1.357       .  D
C1047      C1048   1.545       .  S
C1047      C1086   1.482       .  S
C1048      C1052   1.544       .  S
C1048      C1050   1.543       .  S
C1048      H1054   1.110       .  S
C1049      H1055   1.086       .  S
C1049      C1050   1.375       .  D
C1050      C1426   1.491       .  S
C1051      H1056   1.081       .  S
C1051      C1052   1.366       .  D
C1052      C1078   1.492       .  S
C1057      H1059   1.081       .  S
C1057      C1058   1.352       .  D
C1058      H1060   1.088       .  S
C1061      H1063   1.086       .  S
C1061      C1062   1.353       .  D
C1062      H1064   1.086       .  S
C1065      H1067   1.088       .  S
C1065      C1066   1.345       .  D
C1066      H1068   1.086       .  S
C1069      H1071   1.087       .  S
C1069      C1070   1.349   1_455  D
C1070      H1072   1.086       .  S
C1073      H1075   1.088       .  S
C1073      C1074   1.348       .  D
C1074      H1076   1.085       .  S
C1077      H1079   1.086       .  S
C1077      C1078   1.352       .  D
C1078      H1080   1.086       .  S
C1081      H1083   1.087       .  S
C1081      C1082   1.349       .  D
C1082      H1084   1.086       .  S
C1085      H1087   1.088       .  S
C1085      C1086   1.347       .  D
C1086      H1088   1.086       .  S
C1089      H1091   1.087       .  S
C1089      C1090   1.347       .  D
C1090      H1092   1.087       .  S
C1093      H1095   1.088       .  S
C1093      C1094   1.347       .  D
C1094      H1096   1.085       .  S
C1097      H1099   1.086       .  S
C1097      C1098   1.350       .  D
C1098      H1100   1.087   1_655  S
C1101      H1103   1.086       .  S
C1101      C1102   1.353       .  D
C1102      H1104   1.085       .  S
C1105      H1107   1.087       .  S
C1105      C1106   1.348       .  D
C1106      H1108   1.087       .  S
C1109      H1111   1.081       .  S
C1109      C1110   1.346       .  D
C1110      H1112   1.087       .  S
C1113      H1115   1.086       .  S
C1113      C1114   1.346       .  D
C1114      H1116   1.087       .  S
C1117      H1119   1.087       .  S
C1117      C1118   1.345   1_556  D
C1118      H1120   1.084       .  S
C1121      H1123   1.085       .  S
C1121      C1122   1.344       .  D
C1122      H1124   1.087       .  S
C1125      H1127   1.086       .  S
C1125      C1126   1.352       .  D
C1126      H1128   1.086       .  S
C1129      H1131   1.087       .  S
C1129      C1130   1.343       .  D
C1130      H1132   1.087       .  S
C1133      H1135   1.085       .  S
C1133      C1134   1.353       .  D
C1134      H1136   1.086       .  S
C1137      H1139   1.086       .  S
C1137      C1138   1.349       .  D
C1138      H1140   1.086       .  S
C1141      H1143   1.086       .  S
C1141      C1142   1.345   1_655  D
C1142      H1144   1.088       .  S
C1145      H1147   1.086       .  S
C1145      C1146   1.346   1_655  D
C1146      H1148   1.087       .  S
C1149      H1151   1.087       .  S
C1149      C1150   1.349       .  D
C1150      H1152   1.087       .  S
C1153      H1155   1.087   1_565  S
C1153      C1154   1.345       .  D
C1154      H1156   1.086       .  S
C1157      H1159   1.082       .  S
C1157      C1158   1.351       .  D
C1158      H1160   1.088   1_545  S
C1161      H1163   1.088       .  S
C1161      C1162   1.349       .  D
C1162      H1164   1.085       .  S
C1165      H1167   1.086       .  S
C1165      C1166   1.342       .  D
C1166      H1168   1.087       .  S
C1169      H1171   1.087       .  S
C1169      C1170   1.346       .  D
C1170      H1172   1.086       .  S
C1173      H1175   1.085       .  S
C1173      C1174   1.347       .  D
C1174      H1176   1.087       .  S
C1177      H1179   1.087   1_655  S
C1177      C1178   1.345       .  D
C1178      H1180   1.085       .  S
C1181      H1183   1.087       .  S
C1181      C1182   1.341       .  D
C1182      H1184   1.085       .  S
C1185      H1187   1.087       .  S
C1185      C1186   1.343       .  D
C1186      H1188   1.086       .  S
C1189      H1191   1.087       .  S
C1189      C1190   1.349       .  D
C1190      H1192   1.086       .  S
C1193      H1195   1.085       .  S
C1193      C1194   1.348       .  D
C1194      H1196   1.086       .  S
C1197      H1199   1.086       .  S
C1197      C1198   1.345       .  D
C1198      H1200   1.087       .  S
C1201      H1203   1.086       .  S
C1201      C1202   1.350       .  D
C1202      H1204   1.086       .  S
C1205      H1207   1.082       .  S
C1205      C1206   1.348       .  D
C1206      H1208   1.088       .  S
C1209      H1211   1.085   1_554  S
C1209      C1210   1.358       .  D
C1210      H1212   1.085       .  S
C1213      H1215   1.086       .  S
C1213      C1214   1.351   1_554  D
C1214      H1216   1.086       .  S
C1217      H1219   1.083       .  S
C1217      C1218   1.350       .  D
C1218      H1220   1.087       .  S
C1221      H1223   1.088       .  S
C1221      C1222   1.343       .  D
C1222      H1224   1.086       .  S
C1225      H1227   1.087       .  S
C1225      C1226   1.347       .  D
C1226      H1228   1.087       .  S
C1229      H1231   1.086       .  S
C1229      C1230   1.347       .  D
C1230      H1232   1.088       .  S
C1233      H1235   1.086       .  S
C1233      C1234   1.353       .  D
C1234      H1236   1.087       .  S
C1237      H1239   1.086       .  S
C1237      C1238   1.351   1_655  D
C1238      H1240   1.086       .  S
C1241      H1243   1.088       .  S
C1241      C1242   1.346       .  D
C1242      H1244   1.086       .  S
C1245      H1247   1.086       .  S
C1245      C1246   1.352       .  D
C1246      H1248   1.087       .  S
C1249      H1251   1.087       .  S
C1249      C1250   1.341       .  D
C1250      H1252   1.086       .  S
C1253      H1255   1.086       .  S
C1253      C1254   1.343       .  D
C1254      H1256   1.088       .  S
C1257      H1259   1.087       .  S
C1257      C1258   1.344       .  D
C1258      H1260   1.084       .  S
C1261      H1263   1.087       .  S
C1261      C1262   1.344       .  D
C1262      H1264   1.087       .  S
C1265      H1267   1.086       .  S
C1265      C1266   1.350       .  D
C1266      H1268   1.085       .  S
C1269      H1271   1.087       .  S
C1269      C1270   1.349       .  D
C1270      H1272   1.084       .  S
C1273      H1275   1.086       .  S
C1273      C1274   1.346       .  D
C1274      H1276   1.088       .  S
C1277      H1279   1.086       .  S
C1277      C1278   1.344       .  D
C1278      H1280   1.086       .  S
C1281      H1283   1.087       .  S
C1281      C1282   1.349       .  D
C1282      H1284   1.085       .  S
C1285      H1287   1.086       .  S
C1285      C1286   1.343       .  D
C1286      H1288   1.087       .  S
C1289      H1291   1.085       .  S
C1289      C1290   1.345       .  D
C1290      H1292   1.088       .  S
C1293      H1295   1.086       .  S
C1293      C1294   1.347       .  D
C1294      H1296   1.084       .  S
C1297      H1299   1.086       .  S
C1297      C1298   1.341       .  D
C1298      H1300   1.087       .  S
C1301      H1303   1.086       .  S
C1301      C1302   1.344       .  D
C1302      H1304   1.087       .  S
C1305      H1307   1.088       .  S
C1305      C1306   1.345   1_556  D
C1306      H1308   1.086       .  S
C1309      H1311   1.087       .  S
C1309      C1310   1.345       .  D
C1310      H1312   1.086       .  S
C1313      H1315   1.087       .  S
C1313      C1314   1.345       .  D
C1314      H1316   1.086       .  S
C1317      H1319   1.086       .  S
C1317      C1318   1.351   1_545  D
C1318      H1320   1.087       .  S
C1321      H1323   1.086       .  S
C1321      C1322   1.342   1_545  D
C1322      H1324   1.089       .  S
C1325      H1327   1.087       .  S
C1325      C1326   1.350       .  D
C1326      H1328   1.082       .  S
C1329      H1331   1.086       .  S
C1329      C1330   1.353       .  D
C1330      H1332   1.085       .  S
C1333      H1335   1.086       .  S
C1333      C1334   1.344       .  D
C1334      H1336   1.088       .  S
C1337      H1339   1.087       .  S
C1337      C1338   1.334   1_554  D
C1338      H1340   1.087       .  S
C1341      H1343   1.087       .  S
C1341      C1342   1.345   1_554  D
C1342      H1344   1.085       .  S
C1345      H1347   1.086       .  S
C1345      C1346   1.349       .  D
C1346      H1348   1.086       .  S
C1349      H1351   1.086       .  S
C1349      C1350   1.350       .  D
C1350      H1352   1.085       .  S
C1353      H1355   1.086       .  S
C1353      C1354   1.344       .  D
C1354      H1356   1.087       .  S
C1357      H1359   1.088       .  S
C1357      C1358   1.351       .  D
C1358      H1360   1.085       .  S
C1361      H1363   1.086       .  S
C1361      C1362   1.346       .  D
C1362      H1364   1.088       .  S
C1365      H1367   1.086       .  S
C1365      C1366   1.351       .  D
C1366      H1368   1.086       .  S
C1369      H1371   1.085       .  S
C1369      C1370   1.351       .  D
C1370      H1372   1.087       .  S
C1373      H1375   1.088       .  S
C1373      C1374   1.351       .  D
C1374      H1376   1.082       .  S
C1377      H1379   1.088       .  S
C1377      C1378   1.345       .  D
C1378      H1380   1.082       .  S
C1381      H1383   1.086       .  S
C1381      C1382   1.345       .  D
C1382      H1384   1.087       .  S
C1385      H1387   1.084       .  S
C1385      C1386   1.357       .  D
C1386      H1388   1.085       .  S
C1389      H1391   1.084       .  S
C1389      C1390   1.354       .  D
C1390      H1392   1.087       .  S
C1393      H1395   1.087       .  S
C1393      C1394   1.349       .  D
C1394      H1396   1.087       .  S
C1397      H1399   1.087       .  S
C1397      C1398   1.345       .  D
C1398      H1400   1.087       .  S
C1401      H1403   1.088       .  S
C1401      C1402   1.346       .  D
C1402      H1404   1.086       .  S
C1405      H1407   1.085   1_565  S
C1405      C1406   1.356       .  D
C1406      H1408   1.085       .  S
C1409      H1411   1.086   1_545  S
C1409      C1410   1.355       .  D
C1410      H1412   1.085       .  S
C1413      H1415   1.086       .  S
C1413      C1414   1.351       .  D
C1414      H1416   1.087       .  S
C1417      H1419   1.087       .  S
C1417      C1418   1.343       .  D
C1418      H1420   1.087       .  S
C1421      H1423   1.086       .  S
C1421      C1422   1.346       .  D
C1422      H1424   1.086       .  S
C1425      H1427   1.086       .  S
C1425      C1426   1.348       .  D
C1426      H1428   1.086       .  S
C1429      H1431   1.086       .  S
C1429      C1430   1.349       .  D
C1430      H1432   1.087       .  S
C1433      H1435   1.086       .  S
C1433      C1434   1.354       .  D
C1434      H1436   1.085       .  S
C1437      H1439   1.086       .  S
C1437      C1438   1.355       .  D
C1438      H1440   1.085       .  S
