geometry optimzed in LAMMPS
_audit_creation_date              2020-11-30 
_audit_creation_method            'lammps2cif' 
_symmetry_space_group_name_H-M    'P1' 
_symmetry_Int_Tables_number       1 
_symmetry_cell_setting            triclinic 
loop_ 
_symmetry_equiv_pos_as_xyz 
  x,y,z 
_cell_length_a                    52.38832172 
_cell_length_b                    52.34410168611879 
_cell_length_c                    52.358991697235716 
_cell_angle_alpha                 90.0103870359129 
_cell_angle_beta                  90.04706407634723 
_cell_angle_gamma                 89.94544719057022 
loop_ 
_atom_site_label 
_atom_site_type_symbol 
_atom_site_fract_x 
_atom_site_fract_y 
_atom_site_fract_z 
_atom_site_charge 
O1          O  0.47668419  0.52624196  0.97395421    -0.73100
O2          O  0.53042773  0.47296984  0.98732623    -0.74100
O3          O  0.47680110  0.47209530  0.98098695    -0.62700
O4          O  0.53087854  0.52652695  0.98041638    -0.71100
O5          O  0.52454155  0.53308869  0.02186479    -0.70700
O6          O  0.47190735  0.47740843  0.02282250    -0.61900
O7          O  0.52594285  0.47905275  0.02909843    -0.74400
O8          O  0.47082725  0.53078247  0.01574859    -0.73200
Cu9        Cu  0.50384596  0.49930293  0.97917511     1.04600
Cu10       Cu  0.49816969  0.50527535  0.02384645     1.04300
C11         C  0.46514611  0.53663668  0.99278630     0.93100
C12         C  0.53665457  0.46775244  0.01031142     0.92200
C13         C  0.46601876  0.46613212  0.00202370     0.84400
C14         C  0.53613319  0.53837390  0.00108139     0.90600
O15         O  0.47155640  0.01163092  0.47104950    -0.73100
O16         O  0.52377036  0.02393442  0.52590657    -0.74100
O17         O  0.52514854  0.01500715  0.47225688    -0.62700
O18         O  0.46922065  0.02043273  0.52445078    -0.71100
O19         O  0.47237337  0.97881430  0.53225352    -0.70700
O20         O  0.52817570  0.97333244  0.47978533    -0.61900
O21         O  0.52608782  0.98221082  0.53341854    -0.74400
O22         O  0.47355641  0.96990149  0.47863673    -0.70800
Cu23       Cu  0.49735380  0.01921457  0.49823090     1.04600
Cu24       Cu  0.50014467  0.97456997  0.50622968     1.04300
C25         C  0.46437478  0.98884827  0.46625412     0.93100
C26         C  0.53307306  0.00505661  0.53828468     0.92200
C27         C  0.53530484  0.99330794  0.46771394     0.84400
C28         C  0.46204575  0.00049211  0.53652988     0.90600
O29         O  0.98779681  0.47008209  0.47137475    -0.73100
O30         O  0.97267131  0.52447154  0.52342973    -0.74100
O31         O  0.97889880  0.52345400  0.46923359    -0.62700
O32         O  0.98168497  0.47070455  0.52483123    -0.71100
O33         O  0.02311409  0.47823485  0.53003323    -0.70700
O34         O  0.02020434  0.53138213  0.47479144    -0.61900
O35         O  0.01423026  0.53147462  0.52833439    -0.74400
O36         O  0.02932003  0.47760180  0.47574682    -0.73200
Cu37       Cu  0.97879334  0.49696454  0.49706641     1.04600
Cu38       Cu  0.02319353  0.50488436  0.50235693     1.04300
C39         C  0.01092980  0.46532087  0.46542689     0.93100
C40         C  0.99108916  0.53643725  0.53406572     0.92200
C41         C  0.99909511  0.53577992  0.46340239     0.84400
C42         C  0.00282383  0.46617694  0.53610348     0.90600
N43         N  0.38342873  0.32553003  0.00128681    -0.27500
N44         N  0.40773835  0.33203791  0.99986138    -0.35300
C45         C  0.42206166  0.31071583  0.99885703     0.00900
C46         C  0.40600366  0.28963263  0.99964873     0.06900
C47         C  0.38161470  0.29992786  0.00120190    -0.06200
H48         H  0.44265706  0.31073169  0.99758556     0.07600
H49         H  0.36373249  0.28972081  0.00239681     0.08800
Cu50       Cu  0.42023561  0.36964211  0.99963255     0.44200
Cu51       Cu  0.35365200  0.35159118  0.00339376     0.42000
Cu52       Cu  0.37095123  0.41809039  0.00722223     0.43900
N53         N  0.42750018  0.40857825  0.00123998    -0.34800
N54         N  0.40964523  0.42609803  0.00491476    -0.29100
C55         C  0.42067974  0.44927155  0.00589693    -0.05200
C56         C  0.44658527  0.44612916  0.00233575     0.07000
C57         C  0.45033185  0.42018956  0.99940249     0.00800
H58         H  0.41054035  0.46708300  0.00861531     0.08500
H59         H  0.46831689  0.41043756  0.99649768     0.07500
N60         N  0.33346330  0.40540911  0.00663280    -0.36300
N61         N  0.32717827  0.38103250  0.00515693    -0.28500
C62         C  0.30161208  0.37903011  0.00464663    -0.03700
C63         C  0.29110564  0.40338339  0.00583645     0.04900
C64         C  0.31204611  0.41960241  0.00707572     0.03000
H65         H  0.29158476  0.36104926  0.00324481     0.08100
H66         H  0.31191018  0.44022583  0.00812333     0.06900
N67         N  0.38033805  0.67528227  0.98251307    -0.27500
N68         N  0.40469458  0.66890542  0.98106749    -0.35300
C69         C  0.41888487  0.69032431  0.98063040     0.00900
C70         C  0.40265514  0.71128025  0.98180286     0.06900
C71         C  0.37833816  0.70087349  0.98292918    -0.06200
H72         H  0.43950528  0.69050897  0.97975320     0.07600
H73         H  0.36044789  0.71103275  0.98470301     0.08800
Cu74       Cu  0.41729555  0.63126880  0.98107143     0.44200
Cu75       Cu  0.35093419  0.64899503  0.98542992     0.42000
Cu76       Cu  0.36889288  0.58273411  0.99288483     0.43900
N77         N  0.42509393  0.59247805  0.98421295    -0.34800
N78         N  0.40761080  0.57497025  0.98929825    -0.29100
C79         C  0.41916770  0.55217855  0.99211966    -0.05200
C80         C  0.44502120  0.55547883  0.98820759     0.07000
C81         C  0.44818968  0.58121603  0.98340686     0.00800
H82         H  0.40953673  0.53464294  0.99726431     0.08500
H83         H  0.46604849  0.59122460  0.98072977     0.07500
N84         N  0.33133647  0.59541481  0.99302737    -0.36300
N85         N  0.32485441  0.61961197  0.98999172    -0.28500
C86         C  0.29929243  0.62160381  0.99058136    -0.03700
C87         C  0.28898881  0.59744451  0.99419344     0.04900
C88         C  0.31002941  0.58133416  0.99563611     0.03000
H89         H  0.28912342  0.63945140  0.98844225     0.08100
H90         H  0.31003204  0.56087360  0.99842856     0.06900
N91         N  0.32101209  0.00899946  0.61786445    -0.27500
N92         N  0.32785797  0.01106326  0.59365970    -0.35300
C93         C  0.30675770  0.01145949  0.57896080     0.00900
C94         C  0.28541841  0.00959779  0.59459331     0.06900
C95         C  0.29538489  0.00809548  0.61917157    -0.06200
H96         H  0.30710513  0.01277471  0.55836079     0.07600
H97         H  0.28493036  0.00607680  0.63684044     0.08800
Cu98       Cu  0.36562666  0.01189414  0.58149082     0.44200
Cu99       Cu  0.34665591  0.00615783  0.64825337     0.42000
Cu100      Cu  0.41215100  0.99645008  0.63067994     0.43900
N101        N  0.40442972  0.00731999  0.57451923    -0.34800
N102        N  0.42098744  0.00024507  0.59226722    -0.29100
C103        C  0.44398811  0.99681605  0.58141028    -0.05200
C104        C  0.44188514  0.00245659  0.55575796     0.07000
C105        C  0.41662887  0.00909821  0.55195484     0.00800
H106        H  0.46101929  0.99088320  0.59150667     0.08500
H107        H  0.40760959  0.01401747  0.53401884     0.07500
N108        N  0.39984315  0.99699309  0.66831600    -0.36300
N109        N  0.37583804  0.00094360  0.67490439    -0.28500
C110        C  0.37423676  0.00120735  0.70056952    -0.03700
C111        C  0.39847502  0.99727045  0.71076672     0.04900
C112        C  0.41415072  0.99464384  0.68953883     0.03000
H113        H  0.35665544  0.00429202  0.71091316     0.08100
H114        H  0.43458511  0.99177305  0.68934684     0.06900
O115        O  0.41740557  0.03882305  0.00176436    -0.73100
O116        O  0.41618711  0.96248679  0.99897293    -0.74100
O117        O  0.41711223  0.99933903  0.03862396    -0.62700
O118        O  0.41650193  0.00196590  0.96206109    -0.71100
O119        O  0.45877940  0.00080252  0.96124439    -0.70700
O120        O  0.45940824  0.99887522  0.03851359    -0.61900
O121        O  0.45848280  0.96138052  0.99871368    -0.74400
O122        O  0.45971010  0.03844373  0.00083331    -0.73200
Cu123      Cu  0.41540195  0.00068906  0.00037966     1.04600
Cu124      Cu  0.46061968  0.99987138  0.99984956     1.04300
C125        C  0.43863896  0.05079629  0.00164355     0.93100
C126        C  0.43700503  0.94977520  0.99825901     0.92200
C127        C  0.43827101  0.99873311  0.05077005     0.84400
C128        C  0.43738558  0.00157723  0.94944825     0.90600
N129        N  0.38255157  0.98386545  0.32529161    -0.27500
N130        N  0.40650446  0.98775207  0.33211178    -0.35300
C131        C  0.42092118  0.99011516  0.31097748     0.00900
C132        C  0.40530455  0.98759904  0.28965233     0.06900
C133        C  0.38105373  0.98368622  0.29966287    -0.06200
H134        H  0.44131425  0.99322722  0.31128541     0.07600
H135        H  0.36347740  0.98077417  0.28924972     0.08800
Cu136      Cu  0.41833236  0.98867573  0.36995655     0.44200
Cu137      Cu  0.35298569  0.97873344  0.35118961     0.42000
Cu138      Cu  0.37014837  0.97420516  0.41804946     0.43900
N139        N  0.42592015  0.98546582  0.40875167    -0.34800
N140        N  0.40873111  0.97901574  0.42610172    -0.29100
C141        C  0.42006125  0.97818704  0.44918741    -0.05200
C142        C  0.44545521  0.98458080  0.44613219     0.07000
C143        C  0.44849170  0.98931498  0.42038326     0.00800
H144        H  0.41029368  0.97433236  0.46697138     0.08500
H145        H  0.46576480  0.99535767  0.41082357     0.07500
N146        N  0.33264787  0.97412461  0.40495985    -0.36300
N147        N  0.32650291  0.97560143  0.38052050    -0.28500
C148        C  0.30094833  0.97647304  0.37833218    -0.03700
C149        C  0.29031333  0.97568519  0.40258424     0.04900
C150        C  0.31111013  0.97416925  0.41898503     0.03000
H151        H  0.29097489  0.97860032  0.36036827     0.08100
H152        H  0.31074202  0.97363858  0.43962684     0.06900
N153        N  0.61872153  0.32811390  0.00266376    -0.27500
N154        N  0.59467910  0.33471379  0.00646095    -0.35300
C155        C  0.58002953  0.31364073  0.00589472     0.00900
C156        C  0.59555603  0.29262017  0.00150735     0.06900
C157        C  0.62000397  0.30264717  0.99952082    -0.06200
H158        H  0.55955946  0.31373778  0.00859150     0.07600
H159        H  0.63760083  0.29222781  0.99669467     0.08800
Cu160      Cu  0.58295016  0.37204073  0.01241600     0.44200
Cu161      Cu  0.64881907  0.35393956  0.00305435     0.42000
Cu162      Cu  0.63232259  0.42043167  0.01429498     0.43900
N163        N  0.57553638  0.41080948  0.01533346    -0.34800
N164        N  0.59347190  0.42857451  0.01597569    -0.29100
C165        C  0.58226530  0.45173941  0.01568221    -0.05200
C166        C  0.55612129  0.44826501  0.01502456     0.07000
C167        C  0.55250939  0.42216048  0.01458367     0.00800
H168        H  0.59240647  0.46970956  0.01470141     0.08500
H169        H  0.53455149  0.41215963  0.01257996     0.07500
N170        N  0.66959413  0.40730356  0.01009618    -0.36300
N171        N  0.67552620  0.38314817  0.00575801    -0.28500
C172        C  0.70104472  0.38097169  0.00399186    -0.03700
C173        C  0.71190328  0.40493424  0.00741247     0.04900
C174        C  0.69121426  0.42112691  0.01121173     0.03000
H175        H  0.71084317  0.36307952  0.00076657     0.08100
H176        H  0.69166957  0.44150454  0.01453155     0.06900
N177        N  0.00336795  0.32837220  0.62210581    -0.27500
N178        N  0.99788268  0.33447071  0.59824965    -0.35300
C179        C  0.99543394  0.31290802  0.58445663     0.00900
C180        C  0.99954805  0.29211679  0.60043063     0.06900
C181        C  0.00449956  0.30282252  0.62417853    -0.06200
H182        H  0.99114369  0.31254660  0.56425862     0.07600
H183        H  0.00902117  0.29293361  0.64173055     0.08800
Cu184      Cu  0.99559223  0.37193579  0.58554713     0.44200
Cu185      Cu  0.00964638  0.35490558  0.65085029     0.42000
Cu186      Cu  0.01445511  0.42064834  0.63206871     0.43900
N187        N  0.00016247  0.41035838  0.57703769    -0.34800
N188        N  0.00861858  0.42764612  0.59344331    -0.29100
C189        C  0.01130417  0.45011376  0.58125121    -0.05200
C190        C  0.00375318  0.44681297  0.55620115     0.07000
C191        C  0.99667994  0.42151037  0.55415921     0.00800
H192        H  0.01762246  0.46766985  0.59013771     0.08500
H193        H  0.99001601  0.41177822  0.53718654     0.07500
N194        N  0.01564355  0.40884408  0.66993062    -0.36300
N195        N  0.01395646  0.38461485  0.67671642    -0.28500
C196        C  0.01409363  0.38305540  0.70233369    -0.03700
C197        C  0.01585724  0.40755663  0.71238200     0.04900
C198        C  0.01682034  0.42339994  0.69110222     0.03000
H199        H  0.01224868  0.36531741  0.71273012     0.08100
H200        H  0.01785804  0.44402447  0.69087317     0.06900
O201        O  0.96341768  0.41736372  0.00223991    -0.73100
O202        O  0.03967166  0.41663881  0.00063334    -0.74100
O203        O  0.00243981  0.41680243  0.03962928    -0.62700
O204        O  0.00078826  0.41756132  0.96293595    -0.71100
O205        O  0.00130434  0.45989836  0.96327182    -0.70700
O206        O  0.00254966  0.45914032  0.04020466    -0.61900
O207        O  0.04039412  0.45897710  0.00110126    -0.74400
O208        O  0.96315372  0.45970491  0.00237250    -0.73200
Cu209      Cu  0.00152281  0.41567803  0.00130947     1.04600
Cu210      Cu  0.00182165  0.46094376  0.00172860     1.04300
C211        C  0.95111455  0.43843303  0.00273467     0.93100
C212        C  0.05220081  0.43755510  0.00081909     0.92200
C213        C  0.00293326  0.43780215  0.05209579     0.84400
C214        C  0.00110932  0.43882791  0.95091510     0.90600
N215        N  0.01216695  0.32496841  0.38246944    -0.27500
N216        N  0.01235002  0.33150428  0.40684000    -0.35300
C217        C  0.01076054  0.31026643  0.42121467     0.00900
C218        C  0.00941864  0.28920882  0.40514927     0.06900
C219        C  0.01043305  0.29940364  0.38068153    -0.06200
H220        H  0.01019259  0.31033160  0.44185595     0.07600
H221        H  0.00989332  0.28913214  0.36277664     0.08800
Cu222      Cu  0.01414732  0.36907342  0.41941524     0.44200
Cu223      Cu  0.01350948  0.35114097  0.35268441     0.42000
Cu224      Cu  0.02028633  0.41770777  0.37054036     0.43900
N225        N  0.01652044  0.40790614  0.42717597    -0.34800
N226        N  0.01952434  0.42560949  0.40940194    -0.29100
C227        C  0.01942779  0.44878158  0.42055716    -0.05200
C228        C  0.01623924  0.44543092  0.44652275     0.07000
C229        C  0.01417727  0.41936629  0.45006106     0.00800
H230        H  0.02019391  0.46674664  0.41036872     0.08500
H231        H  0.01035669  0.40950902  0.46781222     0.07500
N232        N  0.01704875  0.40524298  0.33301655    -0.36300
N233        N  0.01447223  0.38098247  0.32654682    -0.28500
C234        C  0.01270827  0.37929413  0.30098233    -0.03700
C235        C  0.01426086  0.40369943  0.29070054     0.04900
C236        C  0.01694480  0.41963925  0.31172706     0.03000
H237        H  0.01036556  0.36150101  0.29076306     0.08100
H238        H  0.01895259  0.44019465  0.31168538     0.06900
N239        N  0.99631751  0.67613429  0.38099030    -0.27500
N240        N  0.00173166  0.66907001  0.40459426    -0.35300
C241        C  0.00512020  0.69002880  0.41906319     0.00900
C242        C  0.00178448  0.71146357  0.40382573     0.06900
C243        C  0.99621126  0.70178579  0.37976332    -0.06200
H244        H  0.00979974  0.68955082  0.43917391     0.07600
H245        H  0.99216005  0.71248015  0.36256599     0.08800
Cu246      Cu  0.00369645  0.63122059  0.41602471     0.44200
Cu247      Cu  0.98978200  0.65048901  0.35147288     0.42000
Cu248      Cu  0.98819939  0.58333652  0.36810654     0.43900
N249        N  0.00047300  0.59251840  0.42369621    -0.34800
N250        N  0.99331259  0.57527400  0.40665501    -0.29100
C251        C  0.99133991  0.55240644  0.41825436    -0.05200
C252        C  0.99803271  0.55545283  0.44359610     0.07000
C253        C  0.00381498  0.58100759  0.44641350     0.00800
H254        H  0.98603689  0.53480597  0.40880909     0.08500
H255        H  0.00950782  0.59064210  0.46379118     0.07500
N256        N  0.98705677  0.59674671  0.33073565    -0.36300
N257        N  0.98737729  0.62126733  0.32478964    -0.28500
C258        C  0.98750831  0.62369538  0.29923608    -0.03700
C259        C  0.98737183  0.59950080  0.28833651     0.04900
C260        C  0.98704804  0.58290830  0.30906629     0.03000
H261        H  0.98823944  0.64187455  0.28948606     0.08100
H262        H  0.98724417  0.56226384  0.30861677     0.06900
N263        N  0.62137408  0.99862634  0.32942018    -0.27500
N264        N  0.59697337  0.00014018  0.33554579    -0.35300
C265        C  0.58300139  0.00151668  0.31403582     0.00900
C266        C  0.59938635  0.00083702  0.29320535     0.06900
C267        C  0.62361086  0.99905086  0.30386184    -0.06200
H268        H  0.56239743  0.00256464  0.31377513     0.07600
H269        H  0.64164822  0.99774922  0.29394614     0.08800
Cu270      Cu  0.58377233  0.99903199  0.37284196     0.44200
Cu271      Cu  0.65056391  0.99512471  0.35596876     0.42000
Cu272      Cu  0.63169197  0.98662382  0.42173352     0.43900
N273        N  0.57545105  0.99449927  0.41129688    -0.34800
N274        N  0.59263342  0.98873686  0.42893184    -0.29100
C275        C  0.58082541  0.98652874  0.45167298    -0.05200
C276        C  0.55514026  0.99141759  0.44811032     0.07000
C277        C  0.55239867  0.99657970  0.42240113     0.00800
H278        H  0.59038310  0.98268780  0.46959259     0.08500
H279        H  0.53496023  0.00157527  0.41249457     0.07500
N280        N  0.66962647  0.98895148  0.40999229    -0.36300
N281        N  0.67637396  0.99203713  0.38588921    -0.28500
C282        C  0.70192548  0.99387521  0.38450940    -0.03700
C283        C  0.71200947  0.99198331  0.40898735     0.04900
C284        C  0.69079173  0.98882242  0.42462336     0.03000
H285        H  0.71220777  0.99697338  0.36689645     0.08100
H286        H  0.69057956  0.98692137  0.44518082     0.06900
O287        O  0.00051749  0.96179625  0.41715356    -0.73100
O288        O  0.00062904  0.03837005  0.41699032    -0.74100
O289        O  0.03884481  0.99988903  0.41537110    -0.62700
O290        O  0.96229457  0.00030766  0.41864165    -0.71100
O291        O  0.96369189  0.99999163  0.46094202    -0.70700
O292        O  0.04082744  0.00030894  0.45764798    -0.61900
O293        O  0.00200852  0.03864581  0.45930135    -0.74400
O294        O  0.00258648  0.96172873  0.45943842    -0.73200
Cu295      Cu  0.00050032  0.00009400  0.41561100     1.04600
Cu296      Cu  0.00234122  0.00018219  0.46082653     1.04300
C297        C  0.00172087  0.94958667  0.43826377     0.93100
C298        C  0.00122207  0.05068373  0.43806398     0.92200
C299        C  0.05202088  0.99991396  0.43592888     0.84400
C300        C  0.95079776  0.00024300  0.44016877     0.90600
N301        N  0.61946066  0.67788155  0.01020886    -0.27500
N302        N  0.59531135  0.67117897  0.01269036    -0.35300
C303        C  0.58075727  0.69238913  0.01296721     0.00900
C304        C  0.59654305  0.71358373  0.01053766     0.06900
C305        C  0.62099882  0.70346329  0.00891103    -0.06200
H306        H  0.56016872  0.69222542  0.01432954     0.07600
H307        H  0.63867159  0.71374159  0.00617442     0.08800
Cu308      Cu  0.58364910  0.63325172  0.01308978     0.44200
Cu309      Cu  0.64893173  0.65179786  0.00667597     0.42000
Cu310      Cu  0.63133892  0.58617858  0.99338182     0.43900
N311        N  0.57587681  0.59488860  0.00656664    -0.34800
N312        N  0.59268269  0.57830683  0.99750473    -0.29100
C313        C  0.58094722  0.55577060  0.99359884    -0.05200
C314        C  0.55576725  0.55825124  0.00101718     0.07000
C315        C  0.55320137  0.58316235  0.00927467     0.00800
H316        H  0.59026757  0.53864114  0.98673818     0.08500
H317        H  0.53602157  0.59224418  0.01629057     0.07500
N318        N  0.66885358  0.59864556  0.99659384    -0.36300
N319        N  0.67504010  0.62256157  0.00172408    -0.28500
C320        C  0.70051830  0.62442549  0.00362952    -0.03700
C321        C  0.71111677  0.60048416  0.99957538     0.04900
C322        C  0.69034205  0.58459892  0.99516932     0.03000
H323        H  0.71040752  0.64198408  0.00808842     0.08100
H324        H  0.69066642  0.56430102  0.99135549     0.06900
N325        N  0.98492564  0.67662271  0.61669937    -0.27500
N326        N  0.98419709  0.67038481  0.59227142    -0.35300
C327        C  0.98432318  0.69189950  0.57818650     0.00900
C328        C  0.98519151  0.71281400  0.59454459     0.06900
C329        C  0.98554782  0.70219297  0.61884575    -0.06200
H330        H  0.98399737  0.69212951  0.55754487     0.07600
H331        H  0.98624443  0.71214221  0.63691845     0.08800
Cu332      Cu  0.98345217  0.63273882  0.57955540     0.44200
Cu333      Cu  0.98527304  0.65021651  0.64618715     0.42000
Cu334      Cu  0.98440459  0.58359090  0.62928759     0.43900
N335        N  0.98366868  0.59363907  0.57236850    -0.34800
N336        N  0.98395973  0.57591376  0.59040169    -0.29100
C337        C  0.98539986  0.55274364  0.57937219    -0.05200
C338        C  0.98580792  0.55605550  0.55323147     0.07000
C339        C  0.98494866  0.58215002  0.54939905     0.00800
H340        H  0.98707194  0.53489258  0.58965880     0.08500
H341        H  0.98616254  0.59209261  0.53132559     0.07500
N342        N  0.98568225  0.59644836  0.66675361    -0.36300
N343        N  0.98600428  0.62093372  0.67280934    -0.28500
C344        C  0.98735921  0.62325338  0.69832030    -0.03700
C345        C  0.98798055  0.59901194  0.70904540     0.04900
C346        C  0.98682005  0.58248595  0.68831323     0.03000
H347        H  0.98789260  0.64138883  0.70818141     0.08100
H348        H  0.98720163  0.56183728  0.68870828     0.06900
N349        N  0.67089101  0.01927389  0.62357427    -0.27500
N350        N  0.66466068  0.02074522  0.59917065    -0.35300
C351        C  0.68613481  0.02030071  0.58506643     0.00900
C352        C  0.70698963  0.01840337  0.60138436     0.06900
C353        C  0.69641593  0.01786101  0.62568102    -0.06200
H354        H  0.68637899  0.02068500  0.56442295     0.07600
H355        H  0.70637854  0.01630587  0.64370009     0.08800
Cu356      Cu  0.62706776  0.02137220  0.58637052     0.44200
Cu357      Cu  0.64450601  0.01773577  0.65299497     0.42000
Cu358      Cu  0.57846018  0.01032598  0.63497851     0.43900
N359        N  0.58848535  0.01639420  0.57842333    -0.34800
N360        N  0.57107964  0.01120677  0.59598438    -0.29100
C361        C  0.54860034  0.00669280  0.58437203    -0.05200
C362        C  0.55198188  0.00960285  0.55838184     0.07000
C363        C  0.57741638  0.01572969  0.55521561     0.00800
H364        H  0.53114724  0.00154213  0.59412478     0.08500
H365        H  0.58736406  0.01853426  0.53733510     0.07500
N366        N  0.59087390  0.01116192  0.67265201    -0.36300
N367        N  0.61507157  0.01401261  0.67912685    -0.28500
C368        C  0.61707988  0.01336820  0.70469627    -0.03700
C369        C  0.59292900  0.00991749  0.71502234     0.04900
C370        C  0.57679536  0.00864569  0.69398897     0.03000
H371        H  0.63499140  0.01487072  0.71484036     0.08100
H372        H  0.55633400  0.00598513  0.69402571     0.06900
O373        O  0.54237224  0.96460993  0.00413280    -0.73100
O374        O  0.54282549  0.04161858  0.00484726    -0.74100
O375        O  0.54211455  0.00342605  0.96596523    -0.62700
O376        O  0.54330571  0.00276105  0.04291773    -0.71100
O377        O  0.58560956  0.00272369  0.04187351    -0.70700
O378        O  0.58442971  0.00290199  0.96564130    -0.61900
O379        O  0.58512202  0.04122159  0.00387398    -0.74400
O380        O  0.58467643  0.96451967  0.00355060    -0.73200
Cu381      Cu  0.54114848  0.00313580  0.00448796     1.04600
Cu382      Cu  0.58638475  0.00285489  0.00372807     1.04300
C383        C  0.56351214  0.95237303  0.00369601     0.93100
C384        C  0.56408142  0.05360721  0.00442907     0.92200
C385        C  0.56319574  0.00303086  0.95365046     0.84400
C386        C  0.56478938  0.00262179  0.05454259     0.90600
O387        O  0.95863998  0.00218877  0.58691627    -0.73100
O388        O  0.03519652  0.00144015  0.58422393    -0.74100
O389        O  0.99722067  0.03994226  0.58681567    -0.62700
O390        O  0.99671858  0.96360402  0.58450962    -0.71100
O391        O  0.99483534  0.96441243  0.54221598    -0.70700
O392        O  0.99592661  0.04151020  0.54452914    -0.61900
O393        O  0.03394808  0.00253873  0.54192749    -0.74400
O394        O  0.95697139  0.00367322  0.54464454    -0.73200
Cu395      Cu  0.99699252  0.00171972  0.58702922     1.04600
Cu396      Cu  0.99537314  0.00304430  0.54181632     1.04300
C397        C  0.94563737  0.00334374  0.56627152     0.93100
C398        C  0.04675609  0.00195713  0.56273692     0.92200
C399        C  0.99662200  0.05289233  0.56614832     0.84400
C400        C  0.99571004  0.95183991  0.56315812     0.90600
O401        O  0.96223596  0.58819202  0.99737908    -0.73100
O402        O  0.03845952  0.58703975  0.00000765    -0.74100
O403        O  0.00168228  0.58793811  0.96050278    -0.62700
O404        O  0.99892695  0.58743692  0.03675036    -0.71100
O405        O  0.99849492  0.54509842  0.03711083    -0.70700
O406        O  0.00086479  0.54560390  0.95992455    -0.61900
O407        O  0.03825941  0.54469305  0.99974344    -0.74400
O408        O  0.96140346  0.54584613  0.99746455    -0.73200
Cu409      Cu  0.00037776  0.58904644  0.99865089     1.04600
Cu410      Cu  0.99977186  0.54377128  0.99851493     1.04300
C411        C  0.94967739  0.56728471  0.99732158     0.93100
C412        C  0.05050990  0.56581416  0.00029652     0.92200
C413        C  0.00150714  0.56696516  0.94803968     0.84400
C414        C  0.99807993  0.56640972  0.04909355     0.90600
C415        C  0.91736067  0.00465211  0.56755505    -0.03500
C416        C  0.90258790  0.00730868  0.54522367    -0.09300
C417        C  0.87593922  0.00914595  0.54668248    -0.17000
C418        C  0.86372232  0.00835679  0.57045412     0.25200
C419        C  0.87826589  0.00565139  0.59272092    -0.18600
C420        C  0.90484940  0.00381517  0.59131572    -0.07500
C421        C  0.83631752  0.01033851  0.57228715    -0.14000
C422        C  0.81355826  0.01180923  0.57564153    -0.13700
C423        C  0.78675729  0.01329829  0.58177278     0.25100
C424        C  0.77872031  0.00873253  0.60682408    -0.19100
C425        C  0.75285512  0.01033834  0.61315746    -0.07600
C426        C  0.73449667  0.01656692  0.59449706    -0.03600
C427        C  0.74276877  0.02101173  0.56928375    -0.09000
C428        C  0.76871682  0.01940379  0.56299582    -0.16600
H429        H  0.91161953  0.00816389  0.52666734     0.11500
H430        H  0.86489601  0.01127077  0.52930925     0.10800
H431        H  0.86904444  0.00501735  0.61122769     0.10800
H432        H  0.91559867  0.00183636  0.60887894     0.11300
H433        H  0.79248581  0.00394088  0.62152582     0.11400
H434        H  0.74737066  0.00654803  0.63269000     0.11300
H435        H  0.72931206  0.02595693  0.55440804     0.11500
H436        H  0.77469886  0.02300307  0.54352414     0.10300
C437        C  0.58612212  0.00751303  0.74248906    -0.03500
C438        C  0.56134071  0.00027144  0.75002829    -0.09300
C439        C  0.55516862  0.99787169  0.77593984    -0.17000
C440        C  0.57364600  0.00268908  0.79463793     0.25200
C441        C  0.59828125  0.00987353  0.78735568    -0.18600
C442        C  0.60449156  0.01229110  0.76154060    -0.07500
C443        C  0.56755966  0.00074117  0.82136940    -0.14000
C444        C  0.56463519  0.00012814  0.84419960    -0.13700
C445        C  0.56384007  0.00041872  0.87167182     0.25100
C446        C  0.58656182  0.99775558  0.88545674    -0.19100
C447        C  0.58630793  0.99876262  0.91209337    -0.07600
C448        C  0.56325477  0.00239248  0.92538739    -0.03600
C449        C  0.54046088  0.00505235  0.91139896    -0.09000
C450        C  0.54077417  0.00410373  0.88466925    -0.16600
H451        H  0.54670400  0.99630199  0.73601062     0.11500
H452        H  0.53600923  0.99231588  0.78136815     0.10800
H453        H  0.61271784  0.01373651  0.80167844     0.10800
H454        H  0.62367976  0.01807293  0.75666519     0.11300
H455        H  0.60453492  0.99501475  0.87559306     0.11400
H456        H  0.60418616  0.99658768  0.92226312     0.11300
H457        H  0.52246127  0.00798358  0.92109982     0.11500
H458        H  0.52309308  0.00636278  0.87416683     0.10300
C459        C  0.99003478  0.59242125  0.73659838    -0.03500
C460        C  0.98632480  0.56717187  0.74514315    -0.09300
C461        C  0.98824033  0.56119414  0.77115858    -0.17000
C462        C  0.99392656  0.58032923  0.78895521     0.25200
C463        C  0.99771400  0.60541940  0.78064060    -0.18600
C464        C  0.99579763  0.61143978  0.75472290    -0.07500
C465        C  0.99579850  0.57453734  0.81579767    -0.14000
C466        C  0.99748245  0.57148605  0.83858287    -0.13700
C467        C  0.99940667  0.56992724  0.86599679     0.25100
C468        C  0.00329777  0.59221510  0.88021963    -0.19100
C469        C  0.00439486  0.59113777  0.90685852    -0.07600
C470        C  0.00162370  0.56769195  0.91972880    -0.03600
C471        C  0.99813153  0.54529524  0.90526944    -0.09000
C472        C  0.99698794  0.54643090  0.87855850    -0.16600
H473        H  0.98174061  0.55203792  0.73184782     0.11500
H474        H  0.98523167  0.54168866  0.77737935     0.10800
H475        H  0.00216738  0.62038886  0.79422783     0.10800
H476        H  0.99903708  0.63101257  0.74900525     0.11300
H477        H  0.00523283  0.61050172  0.87071915     0.11400
H478        H  0.00717314  0.60873447  0.91737427     0.11300
H479        H  0.99585369  0.52699091  0.91460034     0.11500
H480        H  0.99396493  0.52904770  0.86774289     0.10300
C481        C  0.98596389  0.74043325  0.58771202    -0.03500
C482        C  0.98842555  0.75919922  0.60684963    -0.09300
C483        C  0.98951506  0.78510910  0.60049286    -0.17000
C484        C  0.98816151  0.79279224  0.57494594     0.25200
C485        C  0.98553523  0.77439230  0.55573491    -0.18600
C486        C  0.98443528  0.74840880  0.56204299    -0.07500
C487        C  0.98971820  0.81956959  0.56869066    -0.14000
C488        C  0.99130621  0.84233057  0.56534613    -0.13700
C489        C  0.99332840  0.86976331  0.56405759     0.25100
C490        C  0.98768559  0.88298813  0.54146852    -0.19100
C491        C  0.98883116  0.90974540  0.54091050    -0.07600
C492        C  0.99548080  0.92353477  0.56301549    -0.03600
C493        C  0.00145968  0.90999988  0.58545468    -0.09000
C494        C  0.00042946  0.88335589  0.58593030    -0.16600
H495        H  0.98969551  0.75403317  0.62679244     0.11500
H496        H  0.99154470  0.79917319  0.61554775     0.10800
H497        H  0.98443701  0.78010485  0.53587584     0.10800
H498        H  0.98243725  0.73468126  0.54674433     0.11300
H499        H  0.98215889  0.87266660  0.52440430     0.11400
H500        H  0.98406983  0.91963609  0.52337991     0.11300
H501        H  0.00681611  0.92001059  0.60274782     0.11500
H502        H  0.00488604  0.87335108  0.60349792     0.10300
C503        C  0.73861972  0.59357764  0.00024120    -0.03500
C504        C  0.75738625  0.61280308  0.00098823    -0.09300
C505        C  0.78326786  0.60647334  0.00154588    -0.17000
C506        C  0.79087619  0.58087533  0.00136332     0.25200
C507        C  0.77245645  0.56154483  0.00072152    -0.18600
C508        C  0.74647935  0.56783311  0.00015796    -0.07500
C509        C  0.81764542  0.57475118  0.00134768    -0.14000
C510        C  0.84042695  0.57158812  0.00083583    -0.13700
C511        C  0.86782037  0.57016936  0.99973587     0.25100
C512        C  0.88034879  0.54654801  0.00059210    -0.19100
C513        C  0.90702522  0.54549171  0.99949354    -0.07600
C514        C  0.92144010  0.56808850  0.99755796    -0.03600
C515        C  0.90860775  0.59169353  0.99659147    -0.09000
C516        C  0.88200553  0.59269342  0.99766919    -0.16600
H517        H  0.75223656  0.63280487  0.00086736     0.11500
H518        H  0.79737970  0.62159469  0.00194904     0.10800
H519        H  0.77815749  0.54164335  0.00056536     0.10800
H520        H  0.73265599  0.55250653  0.99976236     0.11300
H521        H  0.86953036  0.52898954  0.00216907     0.11400
H522        H  0.91635127  0.52705058  0.00037714     0.11300
H523        H  0.91911161  0.60944050  0.99512979     0.11500
H524        H  0.87248937  0.61107154  0.99695106     0.10300
C525        C  0.56363947  0.92402096  0.00330910    -0.03500
C526        C  0.54083813  0.91000946  0.00583863    -0.09300
C527        C  0.54124657  0.88322474  0.00565643    -0.17000
C528        C  0.56442380  0.87013650  0.00288087     0.25200
C529        C  0.58711959  0.88394861  0.00021164    -0.18600
C530        C  0.58676597  0.91064039  0.00043964    -0.07500
C531        C  0.56536137  0.84258673  0.00325593    -0.14000
C532        C  0.56858527  0.81974406  0.00395875    -0.13700
C533        C  0.57524212  0.79302423  0.00534159     0.25100
C534        C  0.60090986  0.78599661  0.00756318    -0.19100
C535        C  0.60777379  0.76025399  0.00930315    -0.07600
C536        C  0.58904723  0.74097893  0.00883296    -0.03600
C537        C  0.56322734  0.74823660  0.00653953    -0.09000
C538        C  0.55639851  0.77408073  0.00479786    -0.16600
H539        H  0.52274033  0.91973325  0.00814693     0.11500
H540        H  0.52354458  0.87276311  0.00780637     0.10800
H541        H  0.60517563  0.87405834  0.99808729     0.10800
H542        H  0.60464870  0.92078802  0.99838040     0.11300
H543        H  0.61567926  0.80046879  0.00807001     0.11400
H544        H  0.62779586  0.75560996  0.01121108     0.11300
H545        H  0.54825333  0.73404595  0.00595341     0.11500
H546        H  0.53644474  0.77926784  0.00307747     0.10300
C547        C  0.73938350  0.99390336  0.41663871    -0.03500
C548        C  0.75866680  0.99536445  0.39796048    -0.09300
C549        C  0.78434993  0.99730047  0.40498310    -0.17000
C550        C  0.79135966  0.99779389  0.43076510     0.25200
C551        C  0.77241044  0.99641251  0.44956707    -0.18600
C552        C  0.74662304  0.99447558  0.44258059    -0.07500
C553        C  0.81807292  0.99930243  0.43753691    -0.14000
C554        C  0.84093251  0.00015444  0.44067759    -0.13700
C555        C  0.86851558  0.00074027  0.44114539     0.25100
C556        C  0.88213098  0.99764433  0.46400821    -0.19100
C557        C  0.90893086  0.99758653  0.46384277    -0.07600
C558        C  0.92243317  0.00054682  0.44077866    -0.03600
C559        C  0.90851907  0.00375479  0.41799721    -0.09000
C560        C  0.88184391  0.00387287  0.41821408    -0.16600
H561        H  0.75409347  0.99488039  0.37783548     0.11500
H562        H  0.79880515  0.99829004  0.39022285     0.10800
H563        H  0.77754916  0.99675835  0.46960990     0.10800
H564        H  0.73245819  0.99350683  0.45755636     0.11300
H565        H  0.87207147  0.99510596  0.48189285     0.11400
H566        H  0.91907332  0.99498065  0.48166941     0.11300
H567        H  0.91824196  0.00616481  0.39991587     0.11500
H568        H  0.87158296  0.00624797  0.40039098     0.10300
C569        C  0.56580423  0.00227853  0.08278669    -0.03500
C570        C  0.58950722  0.00306718  0.09541315    -0.09300
C571        C  0.59071114  0.00261595  0.12203043    -0.17000
C572        C  0.56829880  0.00134932  0.13644735     0.25200
C573        C  0.54458300  0.00056007  0.12413162    -0.18600
C574        C  0.54332696  0.00103820  0.09742639    -0.07500
C575        C  0.56996905  0.00095500  0.16385260    -0.14000
C576        C  0.57342445  0.00081880  0.18660478    -0.13700
C577        C  0.57970179  0.00084908  0.21334627     0.25100
C578        C  0.56046644  0.00188367  0.23181564    -0.19100
C579        C  0.56680887  0.00199637  0.25777945    -0.07600
C580        C  0.59253720  0.00105865  0.26563084    -0.03600
C581        C  0.61169060  0.00009906  0.24679265    -0.09000
C582        C  0.60529201  0.99998526  0.22089172    -0.16600
H583        H  0.60717717  0.00404340  0.08474223     0.11500
H584        H  0.60916194  0.00325465  0.13138081     0.10800
H585        H  0.52711854  0.99959174  0.13514521     0.10800
H586        H  0.52483873  0.00039305  0.08825189     0.11300
H587        H  0.54057677  0.00259571  0.22616471     0.11400
H588        H  0.55148476  0.00275401  0.27156867     0.11300
H589        H  0.63167344  0.99940813  0.25188679     0.11500
H590        H  0.62034438  0.99922818  0.20672573     0.10300
C591        C  0.00358547  0.73873267  0.41152208    -0.03500
C592        C  0.00470416  0.75807421  0.39289528    -0.09300
C593        C  0.00586225  0.78376332  0.40002986    -0.17000
C594        C  0.00591126  0.79060084  0.42585469     0.25200
C595        C  0.00508698  0.77156180  0.44459517    -0.18600
C596        C  0.00397342  0.74578654  0.43749706    -0.07500
C597        C  0.00611944  0.81723608  0.43276749    -0.14000
C598        C  0.00562816  0.84003041  0.43614056    -0.13700
C599        C  0.00446876  0.86750683  0.43710794     0.25100
C600        C  0.00598608  0.88056116  0.46041011    -0.19100
C601        C  0.00492498  0.90730302  0.46089444    -0.07600
C602        C  0.00233010  0.92127608  0.43804847    -0.03600
C603        C  0.00069288  0.90791386  0.41479230    -0.09000
C604        C  0.00175092  0.88126050  0.41436080    -0.16600
H605        H  0.00473946  0.75347554  0.37275930     0.11500
H606        H  0.00652412  0.79833998  0.38535077     0.10800
H607        H  0.00504797  0.77662957  0.46465961     0.10800
H608        H  0.00300856  0.73150080  0.45238475     0.11300
H609        H  0.00805851  0.87011195  0.47815201     0.11400
H610        H  0.00629590  0.91702076  0.47909793     0.11300
H611        H  0.99867541  0.91804357  0.39687214     0.11500
H612        H  0.00050994  0.87135862  0.39622395     0.10300
C613        C  0.98831080  0.59293669  0.26065244    -0.03500
C614        C  0.98893536  0.61231707  0.24198684    -0.09300
C615        C  0.98988099  0.60619925  0.21600427    -0.17000
C616        C  0.99020973  0.58065297  0.20815758     0.25200
C617        C  0.98964338  0.56120628  0.22647473    -0.18600
C618        C  0.98869824  0.56726912  0.25251186    -0.07500
C619        C  0.99112486  0.57458983  0.18130004    -0.14000
C620        C  0.99199253  0.57108728  0.15852216    -0.13700
C621        C  0.99328142  0.56941098  0.13106380     0.25100
C622        C  0.99364015  0.54568879  0.11862817    -0.19100
C623        C  0.99519975  0.54453264  0.09190718    -0.07600
C624        C  0.99645590  0.56712051  0.07736522    -0.03600
C625        C  0.99595109  0.59079057  0.09011653    -0.09000
C626        C  0.99438189  0.59189215  0.11670044    -0.16600
H627        H  0.98867716  0.63227165  0.24727979     0.11500
H628        H  0.99033189  0.62144158  0.20200898     0.10800
H629        H  0.98991345  0.54134626  0.22064579     0.10800
H630        H  0.98826891  0.55177036  0.26614606     0.11300
H631        H  0.99277530  0.52813488  0.12955026     0.11400
H632        H  0.99544351  0.52603979  0.08265745     0.11300
H633        H  0.99680422  0.60855766  0.07956262     0.11500
H634        H  0.99409973  0.61034853  0.12607918     0.10300
C635        C  0.00691785  0.26186455  0.41245192    -0.03500
C636        C  0.01053561  0.25396617  0.43793266    -0.09300
C637        C  0.00845575  0.22814425  0.44462012    -0.17000
C638        C  0.00267652  0.20987830  0.42597748     0.25200
C639        C  0.99880307  0.21755871  0.40068282    -0.18600
C640        C  0.00089900  0.24330340  0.39394810    -0.07500
C641        C  0.00139983  0.18313585  0.43237201    -0.14000
C642        C  0.00078590  0.16031474  0.43556362    -0.13700
C643        C  0.00057192  0.13281013  0.43658732     0.25100
C644        C  0.00086938  0.11887482  0.41379057    -0.19100
C645        C  0.00104261  0.09220212  0.41431700    -0.07600
C646        C  0.00095959  0.07899819  0.43771756    -0.03600
C647        C  0.00059363  0.09314234  0.46059612    -0.09000
C648        C  0.00039179  0.11990407  0.46001856    -0.16600
H649        H  0.01530272  0.26760286  0.45270013     0.11500
H650        H  0.01157907  0.22241862  0.46426081     0.10800
H651        H  0.99432032  0.20358867  0.38607884     0.10800
H652        H  0.99771055  0.24855188  0.37423014     0.11300
H653        H  0.00104355  0.12865150  0.39554958     0.11400
H654        H  0.00131981  0.08193787  0.39636083     0.11300
H655        H  0.00049185  0.08353932  0.47889862     0.11500
H656        H  0.00018647  0.13049155  0.47779784     0.10300
C657        C  0.00424030  0.43724959  0.08040275    -0.03500
C658        C  0.00481062  0.46002176  0.09473298    -0.09300
C659        C  0.00656584  0.45923555  0.12144036    -0.17000
C660        C  0.00780120  0.43569986  0.13412476     0.25200
C661        C  0.00714996  0.41301316  0.12000913    -0.18600
C662        C  0.00537390  0.41374795  0.09339534    -0.07500
C663        C  0.00967609  0.43445258  0.16158020    -0.14000
C664        C  0.01104679  0.43111887  0.18436064    -0.13700
C665        C  0.01230149  0.42460063  0.21109692     0.25100
C666        C  0.01525703  0.39903027  0.21828649    -0.19100
C667        C  0.01588888  0.39226665  0.24410197    -0.07600
C668        C  0.01360459  0.41101309  0.26324696    -0.03600
C669        C  0.01078036  0.43674194  0.25582243    -0.09000
C670        C  0.01011244  0.44346235  0.22992610    -0.16600
H671        H  0.00400960  0.47841105  0.08531599     0.11500
H672        H  0.00702172  0.47693957  0.13215251     0.10800
H673        H  0.00806255  0.39468870  0.12959664     0.10800
H674        H  0.00501307  0.39586656  0.08299923     0.11300
H675        H  0.01698418  0.38424907  0.20389559     0.11400
H676        H  0.01833515  0.37233274  0.24893981     0.11300
H677        H  0.00881964  0.45170602  0.26993304     0.11500
H678        H  0.00773958  0.46332614  0.22461004     0.10300
C679        C  0.00178562  0.43897283  0.92257756    -0.03500
C680        C  0.00488529  0.46197342  0.90896457    -0.09300
C681        C  0.00679715  0.46182436  0.88226630    -0.17000
C682        C  0.00557364  0.43870702  0.86884412     0.25200
C683        C  0.00211231  0.41582169  0.88221832    -0.18600
C684        C  0.00024066  0.41591969  0.90884834    -0.07500
C685        C  0.00822859  0.43806873  0.84142497    -0.14000
C686        C  0.01040891  0.43512026  0.81865027    -0.13700
C687        C  0.01265235  0.42867739  0.79195103     0.25100
C688        C  0.01522866  0.40305401  0.78483548    -0.19100
C689        C  0.01659097  0.39627096  0.75906038    -0.07600
C690        C  0.01535204  0.41503805  0.73983174    -0.03600
C691        C  0.01312692  0.44085535  0.74719624    -0.09000
C692        C  0.01175896  0.44760235  0.77307571    -0.16600
H693        H  0.00623746  0.48002187  0.91896421     0.11500
H694        H  0.00947014  0.47967362  0.87214937     0.10800
H695        H  0.00110242  0.39781434  0.87205469     0.10800
H696        H  0.99783680  0.39788976  0.91869007     0.11300
H697        H  0.01599684  0.38822405  0.79925715     0.11400
H698        H  0.01854972  0.37626023  0.75434562     0.11300
H699        H  0.01206285  0.45587579  0.73305937     0.11500
H700        H  0.00975481  0.46752340  0.77832897     0.10300
C701        C  0.99670062  0.08117755  0.56746607    -0.03500
C702        C  0.99696198  0.09359201  0.59131487    -0.09300
C703        C  0.99714296  0.12023894  0.59275150    -0.17000
C704        C  0.99707637  0.13491450  0.57042583     0.25200
C705        C  0.99671009  0.12279296  0.54658264    -0.18600
C706        C  0.99650616  0.09607809  0.54509149    -0.07500
C707        C  0.99753322  0.16237045  0.57223918    -0.14000
C708        C  0.99801696  0.18518820  0.57545969    -0.13700
C709        C  0.99857405  0.21205467  0.58140085     0.25100
C710        C  0.99774098  0.23039895  0.56196865    -0.19100
C711        C  0.99803862  0.25645840  0.56806254    -0.07600
C712        C  0.99920339  0.26450719  0.59372269    -0.03600
C713        C  0.00009725  0.24582065  0.61304593    -0.09000
C714        C  0.99978907  0.21985473  0.60690993    -0.16600
H715        H  0.99706308  0.08272973  0.60891457     0.11500
H716        H  0.99740530  0.12940549  0.61130884     0.10800
H717        H  0.99663785  0.13396859  0.52916926     0.10800
H718        H  0.99625531  0.08710772  0.52647103     0.11300
H719        H  0.99683110  0.22457704  0.54212992     0.11400
H720        H  0.99749113  0.27019035  0.55264308     0.11300
H721        H  0.00081204  0.25110844  0.63299125     0.11500
H722        H  0.00039815  0.20582924  0.62212044     0.10300
C723        C  0.73954613  0.41162892  0.00738514    -0.03500
C724        C  0.75807847  0.39331005  0.00066458    -0.09300
C725        C  0.78403948  0.39953667  0.00073586    -0.17000
C726        C  0.79198953  0.42414439  0.00748322     0.25200
C727        C  0.77379063  0.44252344  0.01423112    -0.18600
C728        C  0.74777883  0.43634656  0.01417700    -0.07500
C729        C  0.81882786  0.43033931  0.00739004    -0.14000
C730        C  0.84160290  0.43390315  0.00696481    -0.13700
C731        C  0.86908170  0.43560671  0.00621806     0.25100
C732        C  0.88137917  0.45899232  0.00188949    -0.19100
C733        C  0.90811993  0.46011202  0.00082554    -0.07600
C734        C  0.92282462  0.43780177  0.00394922    -0.03600
C735        C  0.91021462  0.41447893  0.00833845    -0.09000
C736        C  0.88361363  0.41342951  0.00949546    -0.16600
H737        H  0.75266138  0.37414899  0.99520364     0.11500
H738        H  0.79793433  0.38512699  0.99546197     0.10800
H739        H  0.77969027  0.46163631  0.01953424     0.10800
H740        H  0.73423534  0.45096634  0.01959774     0.11300
H741        H  0.87033366  0.47630243  0.99926869     0.11400
H742        H  0.91725699  0.47832610  0.99738093     0.11300
H743        H  0.92090894  0.39695771  0.01095069     0.11500
H744        H  0.87435545  0.39523134  0.01284382     0.10300
C745        C  0.58800224  0.26528657  0.00055551    -0.03500
C746        C  0.60498143  0.24678771  0.99097030    -0.09300
C747        C  0.59848458  0.22089860  0.99125486    -0.17000
C748        C  0.57494103  0.21304629  0.00109125     0.25200
C749        C  0.55766134  0.23130020  0.01020886    -0.18600
C750        C  0.56409879  0.25726095  0.00989040    -0.07500
C751        C  0.56909152  0.18617648  0.00239733    -0.14000
C752        C  0.56628526  0.16330946  0.00330600    -0.13700
C753        C  0.56543414  0.13579081  0.00393332     0.25100
C754        C  0.54227188  0.12286166  0.00718905    -0.19100
C755        C  0.54175884  0.09609829  0.00743829    -0.07600
C756        C  0.56444269  0.08194642  0.00446921    -0.03600
C757        C  0.58760700  0.09516901  0.00138539    -0.09000
C758        C  0.58806159  0.12185901  0.00109067    -0.16600
H759        H  0.62337185  0.25221888  0.98333343     0.11500
H760        H  0.61198360  0.20695124  0.98406729     0.10800
H761        H  0.53937447  0.22545668  0.01788250     0.10800
H762        H  0.55057523  0.27089040  0.01751844     0.11300
H763        H  0.52463938  0.13343953  0.00947470     0.11400
H764        H  0.52365053  0.08650004  0.00999391     0.11300
H765        H  0.60540366  0.08489983  0.99903494     0.11500
H766        H  0.60610194  0.13164719  0.99856335     0.10300
C767        C  0.08033486  0.99904366  0.43443301    -0.03500
C768        C  0.09258877  0.99688640  0.41060478    -0.09300
C769        C  0.11917459  0.99488325  0.40912762    -0.17000
C770        C  0.13399137  0.99506228  0.43138482     0.25200
C771        C  0.12204951  0.99764016  0.45517561    -0.18600
C772        C  0.09540763  0.99961183  0.45670512    -0.07500
C773        C  0.16132441  0.99194021  0.42962003    -0.14000
C774        C  0.18397630  0.98875453  0.42661794    -0.13700
C775        C  0.21066761  0.98465052  0.42109737     0.25100
C776        C  0.22927571  0.98823451  0.43998118    -0.19100
C777        C  0.25517666  0.98486413  0.43416669    -0.07600
C778        C  0.26282655  0.97797942  0.40930829    -0.03600
C779        C  0.24390737  0.97403608  0.39061925    -0.09000
C780        C  0.21808020  0.97733885  0.39648808    -0.16600
H781        H  0.08162007  0.99638491  0.39307488     0.11500
H782        H  0.12816196  0.99290302  0.39059884     0.10800
H783        H  0.13329090  0.99781067  0.47254863     0.10800
H784        H  0.08660289  0.00127740  0.47531330     0.11300
H785        H  0.22379856  0.99387822  0.45911912     0.11400
H786        H  0.26915836  0.98819409  0.44901040     0.11300
H787        H  0.24898224  0.96842190  0.37139651     0.11500
H788        H  0.20387591  0.97438388  0.38172771     0.10300
C789        C  0.43805857  0.99778648  0.07913516    -0.03500
C790        C  0.41472584  0.99747578  0.09244832    -0.09300
C791        C  0.41428621  0.99628471  0.11911434    -0.17000
C792        C  0.43710771  0.99540166  0.13299099     0.25200
C793        C  0.46046914  0.99583492  0.11998312    -0.18600
C794        C  0.46095023  0.99701870  0.09322302    -0.07500
C795        C  0.43617781  0.99387463  0.16051007    -0.14000
C796        C  0.43304244  0.99250697  0.18333270    -0.13700
C797        C  0.42652780  0.99088291  0.21007044     0.25100
C798        C  0.44514956  0.99387601  0.22902923    -0.19100
C799        C  0.43835254  0.99274438  0.25490082    -0.07600
C800        C  0.41277970  0.98860807  0.26220032    -0.03600
C801        C  0.39430858  0.98548298  0.24289195    -0.09000
C802        C  0.40114578  0.98661752  0.21712133    -0.16600
H803        H  0.39673646  0.99805984  0.08226431     0.11500
H804        H  0.39608407  0.99596950  0.12892453     0.10800
H805        H  0.47827295  0.99515786  0.13048969     0.10800
H806        H  0.47918015  0.99722373  0.08354861     0.11300
H807        H  0.46488307  0.99720071  0.22383733     0.11400
H808        H  0.45317507  0.99521441  0.26906356     0.11300
H809        H  0.37447677  0.98223103  0.24751054     0.11500
H810        H  0.38653886  0.98427763  0.20264294     0.10300
C811        C  0.40614698  0.99706606  0.73823666    -0.03500
C812        C  0.38822041  0.00254434  0.75751061    -0.09300
C813        C  0.39550692  0.00303709  0.78322753    -0.17000
C814        C  0.42080420  0.99803865  0.79025530     0.25200
C815        C  0.43878962  0.99232671  0.77132901    -0.18600
C816        C  0.43154632  0.99182284  0.74554219    -0.07500
C817        C  0.42799550  0.99876887  0.81691587    -0.14000
C818        C  0.43197899  0.99960191  0.83966231    -0.13700
C819        C  0.43390931  0.00068088  0.86718905     0.25100
C820        C  0.45742219  0.99751503  0.87961171    -0.19100
C821        C  0.45873635  0.99808091  0.90638725    -0.07600
C822        C  0.43651331  0.00176435  0.92107165    -0.03600
C823        C  0.41307171  0.00508923  0.90834377    -0.09000
C824        C  0.41181885  0.00457501  0.88168205    -0.16600
H825        H  0.36854402  0.00670115  0.75285822     0.11500
H826        H  0.38136118  0.00742677  0.79766782     0.10800
H827        H  0.45842554  0.98832449  0.77647641     0.10800
H828        H  0.44593761  0.98737816  0.73143532     0.11300
H829        H  0.47466991  0.99442264  0.86863877     0.11400
H830        H  0.47703532  0.99530760  0.91558206     0.11300
H831        H  0.39559686  0.00799324  0.91899136     0.11500
H832        H  0.39351185  0.00704896  0.87235104     0.10300
C833        C  0.25801062  0.00888452  0.58683573    -0.03500
C834        C  0.25084577  0.00884385  0.56085707    -0.09300
C835        C  0.22503075  0.00808005  0.55376668    -0.17000
C836        C  0.20598246  0.00735182  0.57249404     0.25200
C837        C  0.21289797  0.00743977  0.59830374    -0.18600
C838        C  0.23861217  0.00819602  0.60543053    -0.07500
C839        C  0.17929415  0.00632707  0.56561523    -0.14000
C840        C  0.15646606  0.00525857  0.56241487    -0.13700
C841        C  0.12893915  0.00384894  0.56191782     0.25100
C842        C  0.11569100  0.00041941  0.58485181    -0.19100
C843        C  0.08903761  0.99956799  0.58501399    -0.07600
C844        C  0.07509475  0.00211137  0.56217601    -0.03600
C845        C  0.08853145  0.00528682  0.53910532    -0.09000
C846        C  0.11529981  0.00617994  0.53899032    -0.16600
H847        H  0.26508004  0.00930512  0.54592634     0.11500
H848        H  0.21995669  0.00799465  0.53370278     0.10800
H849        H  0.19835795  0.00688834  0.61300281     0.10800
H850        H  0.24312920  0.00829249  0.62557423     0.11300
H851        H  0.12599180  0.99857072  0.60271393     0.11400
H852        H  0.07935448  0.99704615  0.60310154     0.11300
H853        H  0.07834879  0.00738463  0.52123794     0.11500
H854        H  0.12530847  0.00886682  0.52109905     0.10300
C855        C  0.40961346  0.73876821  0.98288078    -0.03500
C856        C  0.39102689  0.75769650  0.97846556    -0.09300
C857        C  0.39728764  0.78358773  0.98018448    -0.17000
C858        C  0.42218600  0.79102176  0.98634151     0.25200
C859        C  0.44090405  0.77239215  0.99057463    -0.18600
C860        C  0.43469584  0.74643060  0.98880239    -0.07500
C861        C  0.42821807  0.81778886  0.98855992    -0.14000
C862        C  0.43157280  0.84052133  0.99041193    -0.13700
C863        C  0.43333348  0.86790465  0.99262895     0.25100
C864        C  0.45701948  0.88026118  0.99155481    -0.19100
C865        C  0.45835643  0.90692413  0.99356602    -0.07600
C866        C  0.43598238  0.92151998  0.99664734    -0.03600
C867        C  0.41232129  0.90885988  0.99773068    -0.09000
C868        C  0.41104171  0.88228823  0.99574918    -0.16600
H869        H  0.37162110  0.75259415  0.97359448     0.11500
H870        H  0.38264557  0.79783174  0.97680772     0.10800
H871        H  0.46024282  0.77791616  0.99539730     0.10800
H872        H  0.44945602  0.73244220  0.99249390     0.11300
H873        H  0.47441129  0.86932323  0.98909748     0.11400
H874        H  0.47683260  0.91610316  0.99252444     0.11300
H875        H  0.39472902  0.91947978  0.00006693     0.11500
H876        H  0.39260793  0.87295021  0.99658883     0.10300
C877        C  0.26153208  0.59049581  0.99615808    -0.03500
C878        C  0.25385464  0.56472159  0.99727802    -0.09300
C879        C  0.22798071  0.55831480  0.99910166    -0.17000
C880        C  0.20942840  0.57753583  0.99984433     0.25200
C881        C  0.21683022  0.60317360  0.99878529    -0.18600
C882        C  0.24263216  0.60962927  0.99696090    -0.07500
C883        C  0.18272899  0.57121936  0.00131813    -0.14000
C884        C  0.15995347  0.56798077  0.00202569    -0.13700
C885        C  0.13249639  0.56698262  0.00215607     0.25100
C886        C  0.11864334  0.58980030  0.00113500    -0.19100
C887        C  0.09202043  0.58933372  0.00066662    -0.07600
C888        C  0.07877144  0.56597162  0.00117650    -0.03600
C889        C  0.09282158  0.54305990  0.00237149    -0.09000
C890        C  0.11956278  0.54357983  0.00285235    -0.16600
H891        H  0.26771666  0.54942383  0.99660466     0.11500
H892        H  0.22245862  0.53838546  0.99983582     0.10800
H893        H  0.20262125  0.61822348  0.99932602     0.10800
H894        H  0.24762032  0.62964980  0.99629246     0.11300
H895        H  0.12844881  0.60801240  0.00055982     0.11400
H896        H  0.08183265  0.60732052  0.99975575     0.11300
H897        H  0.08316816  0.52479524  0.00286064     0.11500
H898        H  0.13011213  0.52578758  0.00363564     0.10300
C899        C  0.41320109  0.26213455  0.99918739    -0.03500
C900        C  0.39428215  0.24312892  0.99736160    -0.09300
C901        C  0.40091322  0.21727376  0.99735089    -0.17000
C902        C  0.42651630  0.20990941  0.99913433     0.25200
C903        C  0.44555282  0.22857323  0.00073914    -0.18600
C904        C  0.43896694  0.25450999  0.00075085    -0.07500
C905        C  0.43292484  0.18315037  0.99973303    -0.14000
C906        C  0.43620155  0.16034817  0.00051128    -0.13700
C907        C  0.43739883  0.13287770  0.00157939     0.25100
C908        C  0.46030502  0.11988397  0.99686747    -0.19100
C909        C  0.46091396  0.09312200  0.99725587    -0.07600
C910        C  0.43856021  0.07908966  0.00223645    -0.03600
C911        C  0.41574491  0.09238173  0.00722028    -0.09000
C912        C  0.41520784  0.11904738  0.00692169    -0.16600
H913        H  0.37429724  0.24807192  0.99591760     0.11500
H914        H  0.38600706  0.20298741  0.99606990     0.10800
H915        H  0.46545219  0.22309522  0.00215933     0.10800
H916        H  0.45409388  0.26846906  0.00225364     0.11300
H917        H  0.47759222  0.13040162  0.99265430     0.11400
H918        H  0.47871634  0.08342322  0.99321698     0.11300
H919        H  0.39822853  0.08217688  0.01122712     0.11500
H920        H  0.39738229  0.12889151  0.01062220     0.10300
C921        C  0.26356469  0.41042667  0.00547080    -0.03500
C922        C  0.24463723  0.39134299  0.00577370    -0.09300
C923        C  0.21876906  0.39783773  0.00517918    -0.17000
C924        C  0.21128853  0.42347202  0.00428917     0.25200
C925        C  0.22986450  0.44266635  0.00409638    -0.18600
C926        C  0.25581800  0.43621812  0.00468893    -0.07500
C927        C  0.18450859  0.42977191  0.00347578    -0.14000
C928        C  0.16171041  0.43306280  0.00279443    -0.13700
C929        C  0.13424077  0.43454257  0.00212869     0.25100
C930        C  0.12179880  0.45797831  0.99856487    -0.19100
C931        C  0.09507015  0.45907070  0.99804218    -0.07600
C932        C  0.08049197  0.43669444  0.00099392    -0.03600
C933        C  0.09323137  0.41325490  0.00443118    -0.09000
C934        C  0.11986767  0.41222634  0.00503553    -0.16600
H935        H  0.24964116  0.37132138  0.00650399     0.11500
H936        H  0.20456350  0.38280318  0.00537771     0.10800
H937        H  0.22430821  0.46259817  0.00341059     0.10800
H938        H  0.26969201  0.45149019  0.00438243     0.11300
H939        H  0.13272967  0.47537743  0.99623534     0.11400
H940        H  0.08583138  0.47736578  0.99527904     0.11300
H941        H  0.08262077  0.39567691  0.00684300     0.11500
H942        H  0.12926651  0.39398159  0.00779654     0.10300
loop_ 
_geom_bond_atom_site_label_1 
_geom_bond_atom_site_label_2 
_geom_bond_distance 
_geom_bond_site_symmetry_2 
_ccdc_geom_bond_type 
O1           Cu9   2.021       .  S
O1           C11   1.278       .  A
O2           Cu9   2.004       .  S
O2           C12   1.276   1_556  A
O3           Cu9   2.012       .  S
O3           C13   1.277   1_556  A
O4           Cu9   2.011       .  S
O4           C14   1.277   1_556  A
O5          Cu10   2.011       .  S
O5           C14   1.277       .  A
O6          Cu10   2.007       .  S
O6           C13   1.276       .  A
O7          Cu10   2.018       .  S
O7           C12   1.278       .  A
O8          Cu10   2.002       .  S
O8           C11   1.276   1_554  A
Cu9         Cu10   2.379   1_556  S
C11          C80   1.463       .  S
C12         C166   1.463       .  S
C13          C56   1.461       .  S
C14         C314   1.464       .  S
O15         Cu23   2.002       .  S
O15          C25   1.276   1_545  A
O16         Cu23   2.018       .  S
O16          C26   1.278       .  A
O17         Cu23   2.005       .  S
O17          C27   1.276   1_545  A
O18         Cu23   2.016       .  S
O18          C28   1.278       .  A
O19         Cu24   2.006       .  S
O19          C28   1.276   1_565  A
O20         Cu24   2.020       .  S
O20          C27   1.278       .  A
O21         Cu24   2.008       .  S
O21          C26   1.276   1_565  A
O22         Cu24   2.021       .  S
O22          C25   1.278       .  A
Cu23        Cu24   2.379   1_545  S
C25         C142   1.463       .  S
C26         C362   1.464       .  S
C27         C276   1.464       .  S
C28         C104   1.463       .  S
O29         Cu37   2.003       .  S
O29          C39   1.276   1_655  A
O30         Cu37   2.020       .  S
O30          C40   1.278       .  A
O31         Cu37   2.012       .  S
O31          C41   1.277       .  A
O32         Cu37   2.006       .  S
O32          C42   1.276   1_655  A
O33         Cu38   2.012       .  S
O33          C42   1.277       .  A
O34         Cu38   2.008       .  S
O34          C41   1.277   1_455  A
O35         Cu38   2.002       .  S
O35          C40   1.276   1_455  A
O36         Cu38   2.021       .  S
O36          C39   1.278       .  A
Cu37        Cu38   2.379   1_655  S
C39         C228   1.463       .  S
C40         C338   1.462       .  S
C41         C252   1.463       .  S
C42         C190   1.462       .  S
N43          N44   1.321   1_554  A
N43          C47   1.344       .  A
N43         Cu51   2.074       .  S
N44          C45   1.345       .  A
N44         Cu50   2.075       .  S
C45          C46   1.389       .  A
C45          H48   1.081       .  S
C46         C899   1.488       .  S
C46          C47   1.389   1_556  A
C47          H49   1.081       .  S
Cu50         N53   2.075   1_556  S
Cu51         N61   2.074       .  S
Cu52         N54   2.074       .  S
Cu52         N60   2.074       .  S
N53          N54   1.323       .  A
N53          C57   1.346   1_554  A
N54          C55   1.345       .  A
C55          C56   1.380       .  A
C55          H58   1.082       .  S
C56          C57   1.380   1_554  A
C57          H59   1.082       .  S
N60          N61   1.320       .  A
N60          C64   1.345       .  A
N61          C62   1.344       .  A
C62          C63   1.389       .  A
C62          H65   1.081       .  S
C63         C921   1.489       .  S
C63          C64   1.389       .  A
C64          H66   1.081       .  S
N67          N68   1.321       .  A
N67          C71   1.344       .  A
N67         Cu75   2.072       .  S
N68          C69   1.346       .  A
N68         Cu74   2.077       .  S
C69          C70   1.389       .  A
C69          H72   1.081       .  S
C70         C855   1.486       .  S
C70          C71   1.387       .  A
C71          H73   1.081       .  S
Cu74         N77   2.077       .  S
Cu75         N85   2.072       .  S
Cu76         N78   2.077       .  S
Cu76         N84   2.076       .  S
N77          N78   1.324       .  A
N77          C81   1.346       .  A
N78          C79   1.345       .  A
C79          C80   1.381       .  A
C79          H82   1.082       .  S
C80          C81   1.381       .  A
C81          H83   1.082       .  S
N84          N85   1.321       .  A
N84          C88   1.345       .  A
N85          C86   1.343       .  A
C86          C87   1.388       .  A
C86          H89   1.081       .  S
C87         C877   1.488       .  S
C87          C88   1.389       .  A
C88          H90   1.081       .  S
N91          N92   1.322       .  A
N91          C95   1.345       .  A
N91         Cu99   2.087       .  S
N92          C93   1.347       .  A
N92         Cu98   2.080       .  S
C93          C94   1.390       .  A
C93          H96   1.081       .  S
C94         C833   1.492       .  S
C94          C95   1.391       .  A
C95          H97   1.081       .  S
Cu98        N101   2.079       .  S
Cu99        N109   2.087       .  S
Cu100       N102   2.074   1_565  S
Cu100       N108   2.074       .  S
N101        N102   1.323       .  A
N101        C105   1.347       .  A
N102        C103   1.345   1_545  A
C103        C104   1.380   1_565  A
C103        H106   1.082       .  S
C104        C105   1.382       .  A
C105        H107   1.082       .  S
N108        N109   1.320   1_565  A
N108        C112   1.345       .  A
N109        C110   1.347       .  A
C110        C111   1.392   1_545  A
C110        H113   1.081       .  S
C111        C811   1.493       .  S
C111        C112   1.389       .  A
C112        H114   1.081       .  S
O115       Cu123   2.000       .  S
O115        C125   1.277       .  A
O116       Cu123   2.001   1_566  S
O116        C126   1.278       .  A
O117       Cu123   2.006   1_565  S
O117        C127   1.278       .  A
O118       Cu123   2.008   1_556  S
O118        C128   1.279       .  A
O119       Cu124   2.024   1_545  S
O119        C128   1.280       .  A
O120       Cu124   2.026   1_554  S
O120        C127   1.280       .  A
O121       Cu124   2.019       .  S
O121        C126   1.279       .  A
O122       Cu124   2.020   1_544  S
O122        C125   1.280       .  A
Cu123      Cu124   2.369   1_544  S
C125        C910   1.481       .  S
C126        C866   1.482       .  S
C127        C789   1.486       .  S
C128        C822   1.486       .  S
N129        N130   1.320       .  A
N129        C133   1.344       .  A
N129       Cu137   2.077       .  S
N130        C131   1.346       .  A
N130       Cu136   2.076       .  S
C131        C132   1.390       .  A
C131        H134   1.081       .  S
C132        C800   1.491       .  S
C132        C133   1.390       .  A
C133        H135   1.081       .  S
Cu136       N139   2.076       .  S
Cu137       N147   2.077       .  S
Cu138       N140   2.080       .  S
Cu138       N146   2.080       .  S
N139        N140   1.324       .  A
N139        C143   1.345       .  A
N140        C141   1.347       .  A
C141        C142   1.382       .  A
C141        H144   1.082       .  S
C142        C143   1.380       .  A
C143        H145   1.082       .  S
N146        N147   1.321       .  A
N146        C150   1.347       .  A
N147        C148   1.344       .  A
C148        C149   1.388       .  A
C148        H151   1.081       .  S
C149        C778   1.487       .  S
C149        C150   1.389       .  A
C150        H152   1.081       .  S
N153        N154   1.321       .  A
N153        C157   1.345   1_554  A
N153       Cu161   2.078       .  S
N154        C155   1.345       .  A
N154       Cu160   2.071       .  S
C155        C156   1.387       .  A
C155        H158   1.082       .  S
C156        C745   1.486       .  S
C156        C157   1.389   1_554  A
C157        H159   1.081       .  S
Cu160       N163   2.071       .  S
Cu161       N171   2.078       .  S
Cu162       N164   2.081       .  S
Cu162       N170   2.081       .  S
N163        N164   1.323       .  A
N163        C167   1.345       .  A
N164        C165   1.347       .  A
C165        C166   1.382       .  A
C165        H168   1.082       .  S
C166        C167   1.380       .  A
C167        H169   1.082       .  S
N170        N171   1.321       .  A
N170        C174   1.346       .  A
N171        C172   1.345       .  A
C172        C173   1.389       .  A
C172        H175   1.081       .  S
C173        C723   1.490       .  S
C173        C174   1.390       .  A
C174        H176   1.081       .  S
N177        N178   1.321   1_455  A
N177        C181   1.343       .  A
N177       Cu185   2.074       .  S
N178        C179   1.346       .  A
N178       Cu184   2.074       .  S
C179        C180   1.389       .  A
C179        H182   1.081       .  S
C180        C712   1.487       .  S
C180        C181   1.388   1_655  A
C181        H183   1.081       .  S
Cu184       N187   2.074   1_655  S
Cu185       N195   2.074       .  S
Cu186       N188   2.078       .  S
Cu186       N194   2.077       .  S
N187        N188   1.324       .  A
N187        C191   1.345   1_455  A
N188        C189   1.346       .  A
C189        C190   1.381       .  A
C189        H192   1.082       .  S
C190        C191   1.380   1_455  A
C191        H193   1.082       .  S
N194        N195   1.320       .  A
N194        C198   1.346       .  A
N195        C196   1.344       .  A
C196        C197   1.389       .  A
C196        H199   1.081       .  S
C197        C690   1.490       .  S
C197        C198   1.390       .  A
C198        H200   1.081       .  S
O201       Cu209   1.999   1_655  S
O201        C211   1.277       .  A
O202       Cu209   2.000       .  S
O202        C212   1.277       .  A
O203       Cu209   2.008       .  S
O203        C213   1.279       .  A
O204       Cu209   2.012   1_556  S
O204        C214   1.279       .  A
O205       Cu210   2.014   1_556  S
O205        C214   1.279       .  A
O206       Cu210   2.017       .  S
O206        C213   1.279       .  A
O207       Cu210   2.024       .  S
O207        C212   1.280       .  A
O208       Cu210   2.027   1_655  S
O208        C211   1.280       .  A
Cu209      Cu210   2.370       .  S
C211        C734   1.484       .  S
C212        C932   1.483       .  S
C213        C657   1.484       .  S
C214        C679   1.484       .  S
N215        N216   1.321       .  A
N215        C219   1.345       .  A
N215       Cu223   2.077       .  S
N216        C217   1.345       .  A
N216       Cu222   2.076       .  S
C217        C218   1.388       .  A
C217        H220   1.081       .  S
C218        C635   1.487       .  S
C218        C219   1.389       .  A
C219        H221   1.081       .  S
Cu222       N225   2.077       .  S
Cu223       N233   2.078       .  S
Cu224       N226   2.077       .  S
Cu224       N232   2.077       .  S
N225        N226   1.323       .  A
N225        C229   1.346       .  A
N226        C227   1.346       .  A
C227        C228   1.381       .  A
C227        H230   1.082       .  S
C228        C229   1.381       .  A
C229        H231   1.082       .  S
N232        N233   1.321       .  A
N232        C236   1.346       .  A
N233        C234   1.345       .  A
C234        C235   1.389       .  A
C234        H237   1.081       .  S
C235        C668   1.488       .  S
C235        C236   1.388       .  A
C236        H238   1.081       .  S
N239        N240   1.321   1_655  A
N239        C243   1.344       .  A
N239       Cu247   2.075       .  S
N240        C241   1.345       .  A
N240       Cu246   2.072       .  S
C241        C242   1.388       .  A
C241        H244   1.081       .  S
C242        C591   1.486       .  S
C242        C243   1.389   1_455  A
C243        H245   1.081       .  S
Cu246       N249   2.072       .  S
Cu247       N257   2.075       .  S
Cu248       N250   2.079       .  S
Cu248       N256   2.080       .  S
N249        N250   1.323   1_455  A
N249        C253   1.345       .  A
N250        C251   1.346       .  A
C251        C252   1.381       .  A
C251        H254   1.082       .  S
C252        C253   1.380   1_655  A
C253        H255   1.082       .  S
N256        N257   1.321       .  A
N256        C260   1.346       .  A
N257        C258   1.344       .  A
C258        C259   1.389       .  A
C258        H261   1.081       .  S
C259        C613   1.490       .  S
C259        C260   1.390       .  A
C260        H262   1.081       .  S
N263        N264   1.320   1_565  A
N263        C267   1.344       .  A
N263       Cu271   2.074       .  S
N264        C265   1.345       .  A
N264       Cu270   2.073   1_545  S
C265        C266   1.389       .  A
C265        H268   1.081       .  S
C266        C580   1.487       .  S
C266        C267   1.389   1_545  A
C267        H269   1.081       .  S
Cu270       N273   2.074       .  S
Cu271       N281   2.075       .  S
Cu272       N274   2.084       .  S
Cu272       N280   2.084       .  S
N273        N274   1.324       .  A
N273        C277   1.345       .  A
N274        C275   1.347       .  A
C275        C276   1.382       .  A
C275        H278   1.082       .  S
C276        C277   1.380       .  A
C277        H279   1.082   1_565  S
N280        N281   1.321       .  A
N280        C284   1.347       .  A
N281        C282   1.344       .  A
C282        C283   1.389       .  A
C282        H285   1.081       .  S
C283        C547   1.492       .  S
C283        C284   1.391       .  A
C284        H286   1.081       .  S
O287       Cu295   2.006   1_565  S
O287        C297   1.278       .  A
O288       Cu295   2.005       .  S
O288        C298   1.278       .  A
O289       Cu295   2.009   1_565  S
O289        C299   1.278       .  A
O290       Cu295   2.008   1_655  S
O290        C300   1.278       .  A
O291       Cu296   2.025   1_665  S
O291        C300   1.280   1_565  A
O292       Cu296   2.023       .  S
O292        C299   1.280   1_545  A
O293       Cu296   2.015       .  S
O293        C298   1.279       .  A
O294       Cu296   2.014   1_565  S
O294        C297   1.279       .  A
Cu295      Cu296   2.369       .  S
C297        C602   1.482       .  S
C298        C646   1.482       .  S
C299        C767   1.486       .  S
C300        C558   1.486       .  S
N301        N302   1.320       .  A
N301        C305   1.343       .  A
N301       Cu309   2.068       .  S
N302        C303   1.346       .  A
N302       Cu308   2.078       .  S
C303        C304   1.390       .  A
C303        H306   1.081       .  S
C304        C536   1.489       .  S
C304        C305   1.389       .  A
C305        H307   1.081       .  S
Cu308       N311   2.077       .  S
Cu309       N319   2.068       .  S
Cu310       N312   2.078       .  S
Cu310       N318   2.078       .  S
N311        N312   1.324   1_554  A
N311        C315   1.345       .  A
N312        C313   1.346       .  A
C313        C314   1.381   1_556  A
C313        H316   1.082       .  S
C314        C315   1.380       .  A
C315        H317   1.082       .  S
N318        N319   1.321   1_556  A
N318        C322   1.346       .  A
N319        C320   1.342       .  A
C320        C321   1.387   1_554  A
C320        H323   1.081       .  S
C321        C503   1.486   1_556  S
C321        C322   1.389       .  A
C322        H324   1.081       .  S
N325        N326   1.321       .  A
N325        C329   1.344       .  A
N325       Cu333   2.073       .  S
N326        C327   1.346       .  A
N326       Cu332   2.080       .  S
C327        C328   1.391       .  A
C327        H330   1.081       .  S
C328        C481   1.490       .  S
C328        C329   1.389       .  A
C329        H331   1.081       .  S
Cu332       N335   2.081       .  S
Cu333       N343   2.072       .  S
Cu334       N336   2.075       .  S
Cu334       N342   2.075       .  S
N335        N336   1.324       .  A
N335        C339   1.346       .  A
N336        C337   1.345       .  A
C337        C338   1.380       .  A
C337        H340   1.082       .  S
C338        C339   1.381       .  A
C339        H341   1.082       .  S
N342        N343   1.320       .  A
N342        C346   1.346       .  A
N343        C344   1.343       .  A
C344        C345   1.388       .  A
C344        H347   1.081       .  S
C345        C459   1.487       .  S
C345        C346   1.389       .  A
C346        H348   1.081       .  S
N349        N350   1.321       .  A
N349        C353   1.344       .  A
N349       Cu357   2.072       .  S
N350        C351   1.346       .  A
N350       Cu356   2.080       .  S
C351        C352   1.390       .  A
C351        H354   1.081       .  S
C352        C426   1.489       .  S
C352        C353   1.388       .  A
C353        H355   1.081       .  S
Cu356       N359   2.080       .  S
Cu357       N367   2.072       .  S
Cu358       N360   2.078       .  S
Cu358       N366   2.077       .  S
N359        N360   1.324       .  A
N359        C363   1.346       .  A
N360        C361   1.346       .  A
C361        C362   1.381       .  A
C361        H364   1.082       .  S
C362        C363   1.381       .  A
C363        H365   1.082       .  S
N366        N367   1.321       .  A
N366        C370   1.346       .  A
N367        C368   1.343       .  A
C368        C369   1.388       .  A
C368        H371   1.081       .  S
C369        C437   1.487       .  S
C369        C370   1.389       .  A
C370        H372   1.081       .  S
O373       Cu381   2.018   1_565  S
O373        C383   1.279       .  A
O374       Cu381   2.016       .  S
O374        C384   1.279       .  A
O375       Cu381   2.018   1_556  S
O375        C385   1.279       .  A
O376       Cu381   2.015       .  S
O376        C386   1.279       .  A
O377       Cu382   1.998       .  S
O377        C386   1.277       .  A
O378       Cu382   1.997   1_556  S
O378        C385   1.277       .  A
O379       Cu382   2.009       .  S
O379        C384   1.279       .  A
O380       Cu382   2.009   1_565  S
O380        C383   1.279       .  A
Cu381      Cu382   2.370       .  S
C383        C525   1.484       .  S
C384        C756   1.484       .  S
C385        C448   1.480       .  S
C386        C569   1.480       .  S
O387       Cu395   2.009       .  S
O387        C397   1.279       .  A
O388       Cu395   2.007   1_455  S
O388        C398   1.278       .  A
O389       Cu395   2.001       .  S
O389        C399   1.277       .  A
O390       Cu395   2.000   1_565  S
O390        C400   1.277       .  A
O391       Cu396   2.022   1_565  S
O391        C400   1.280       .  A
O392       Cu396   2.019       .  S
O392        C399   1.280       .  A
O393       Cu396   2.021   1_455  S
O393        C398   1.279       .  A
O394       Cu396   2.018       .  S
O394        C397   1.279       .  A
Cu395      Cu396   2.370       .  S
C397        C415   1.484       .  S
C398        C844   1.485       .  S
C399        C701   1.482       .  S
C400        C492   1.482       .  S
O401       Cu409   2.000   1_655  S
O401        C411   1.277       .  A
O402       Cu409   1.999   1_554  S
O402        C412   1.277       .  A
O403       Cu409   1.999       .  S
O403        C413   1.277       .  A
O404       Cu409   1.998   1_654  S
O404        C414   1.277       .  A
O405       Cu410   2.023   1_554  S
O405        C414   1.280       .  A
O406       Cu410   2.024   1_455  S
O406        C413   1.280       .  A
O407       Cu410   2.018   1_455  S
O407        C412   1.279   1_556  A
O408       Cu410   2.014       .  S
O408        C411   1.279       .  A
Cu409      Cu410   2.370   1_455  S
C411        C514   1.480       .  S
C412        C888   1.481       .  S
C413        C470   1.483       .  S
C414        C624   1.483       .  S
C415        C416   1.408       .  A
C415        C420   1.407       .  A
C416        C417   1.401       .  A
C416        H429   1.082       .  S
C417        C418   1.401       .  A
C417        H430   1.083       .  S
C418        C419   1.399       .  A
C418        C421   1.443       .  S
C419        C420   1.398       .  A
C419        H431   1.084       .  S
C420        H432   1.083       .  S
C421        C422   1.208       .  T
C422        C423   1.443       .  S
C423        C424   1.399       .  A
C423        C428   1.400       .  A
C424        C425   1.398       .  A
C424        H433   1.084       .  S
C425        C426   1.409       .  A
C425        H434   1.081       .  S
C426        C427   1.409       .  A
C427        C428   1.401       .  A
C427        H435   1.081       .  S
C428        H436   1.083       .  S
C437        C438   1.410       .  A
C437        C442   1.408       .  A
C438        C439   1.401   1_545  A
C438        H451   1.081   1_545  S
C439        C440   1.399   1_565  A
C439        H452   1.083       .  S
C440        C441   1.398       .  A
C440        C443   1.439       .  S
C441        C442   1.396       .  A
C441        H453   1.084       .  S
C442        H454   1.081       .  S
C443        C444   1.206       .  T
C444        C445   1.439       .  S
C445        C446   1.398   1_545  A
C445        C450   1.400       .  A
C446        C447   1.396       .  A
C446        H455   1.084       .  S
C447        C448   1.407   1_565  A
C447        H456   1.083       .  S
C448        C449   1.407       .  A
C449        C450   1.401       .  A
C449        H457   1.082       .  S
C450        H458   1.083       .  S
C459        C460   1.409       .  A
C459        C464   1.408       .  A
C460        C461   1.401       .  A
C460        H473   1.082       .  S
C461        C462   1.400       .  A
C461        H474   1.083       .  S
C462        C463   1.398       .  A
C462        C465   1.441       .  S
C463        C464   1.397       .  A
C463        H475   1.084   1_655  S
C464        H476   1.081       .  S
C465        C466   1.207       .  T
C466        C467   1.441       .  S
C467        C468   1.399   1_655  A
C467        C472   1.401       .  A
C468        C469   1.397       .  A
C468        H477   1.084       .  S
C469        C470   1.408       .  A
C469        H478   1.083       .  S
C470        C471   1.407   1_455  A
C471        C472   1.401       .  A
C471        H479   1.082       .  S
C472        H480   1.083       .  S
C481        C482   1.409       .  A
C481        C486   1.410       .  A
C482        C483   1.398       .  A
C482        H495   1.081       .  S
C483        C484   1.399       .  A
C483        H496   1.084       .  S
C484        C485   1.399       .  A
C484        C487   1.442       .  S
C485        C486   1.401       .  A
C485        H497   1.083       .  S
C486        H498   1.081       .  S
C487        C488   1.207       .  T
C488        C489   1.442       .  S
C489        C490   1.402       .  A
C489        C494   1.398   1_655  A
C490        C491   1.402       .  A
C490        H499   1.083       .  S
C491        C492   1.408       .  A
C491        H500   1.083       .  S
C492        C493   1.407   1_655  A
C493        C494   1.396       .  A
C493        H501   1.083       .  S
C494        H502   1.084       .  S
C503        C504   1.408       .  A
C503        C508   1.409       .  A
C504        C505   1.396       .  A
C504        H517   1.081       .  S
C505        C506   1.398       .  A
C505        H518   1.084       .  S
C506        C507   1.399       .  A
C506        C509   1.438       .  S
C507        C508   1.400       .  A
C507        H519   1.083       .  S
C508        H520   1.081   1_554  S
C509        C510   1.205       .  T
C510        C511   1.438   1_554  S
C511        C512   1.400   1_556  A
C511        C516   1.399       .  A
C512        C513   1.400   1_554  A
C512        H521   1.083       .  S
C513        C514   1.408       .  A
C513        H522   1.082   1_556  S
C514        C515   1.407       .  A
C515        C516   1.396       .  A
C515        H523   1.083       .  S
C516        H524   1.084       .  S
C525        C526   1.409       .  A
C525        C530   1.407       .  A
C526        C527   1.402       .  A
C526        H539   1.083       .  S
C527        C528   1.401       .  A
C527        H540   1.083       .  S
C528        C529   1.399       .  A
C528        C531   1.443       .  S
C529        C530   1.397       .  A
C529        H541   1.084   1_554  S
C530        H542   1.083   1_554  S
C531        C532   1.208       .  T
C532        C533   1.443       .  S
C533        C534   1.399       .  A
C533        C538   1.400       .  A
C534        C535   1.397       .  A
C534        H543   1.084       .  S
C535        C536   1.408       .  A
C535        H544   1.081       .  S
C536        C537   1.410       .  A
C537        C538   1.402       .  A
C537        H545   1.081       .  S
C538        H546   1.083       .  S
C547        C548   1.409       .  A
C547        C552   1.410       .  A
C548        C549   1.398       .  A
C548        H561   1.081       .  S
C549        C550   1.399       .  A
C549        H562   1.084       .  S
C550        C551   1.401       .  A
C550        C553   1.446       .  S
C551        C552   1.403       .  A
C551        H563   1.083       .  S
C552        H564   1.081       .  S
C553        C554   1.210   1_565  T
C554        C555   1.446       .  S
C555        C556   1.402   1_545  A
C555        C560   1.399       .  A
C556        C557   1.404       .  A
C556        H565   1.083       .  S
C557        C558   1.409   1_565  A
C557        H566   1.082       .  S
C558        C559   1.407       .  A
C559        C560   1.398       .  A
C559        H567   1.083       .  S
C560        H568   1.084       .  S
C569        C570   1.407       .  A
C569        C574   1.407       .  A
C570        C571   1.395       .  A
C570        H583   1.083       .  S
C571        C572   1.398       .  A
C571        H584   1.084       .  S
C572        C573   1.400       .  A
C572        C575   1.438       .  S
C573        C574   1.400       .  A
C573        H585   1.083   1_545  S
C574        H586   1.081       .  S
C575        C576   1.205       .  T
C576        C577   1.438       .  S
C577        C578   1.398       .  A
C577        C582   1.398   1_545  A
C578        C579   1.399       .  A
C578        H587   1.084       .  S
C579        C580   1.410       .  A
C579        H588   1.081       .  S
C580        C581   1.408       .  A
C581        C582   1.397   1_545  A
C581        H589   1.081   1_545  S
C582        H590   1.084       .  S
C591        C592   1.407       .  A
C591        C596   1.409       .  A
C592        C593   1.397       .  A
C592        H605   1.081       .  S
C593        C594   1.399       .  A
C593        H606   1.084       .  S
C594        C595   1.399       .  A
C594        C597   1.440       .  S
C595        C596   1.401       .  A
C595        H607   1.083       .  S
C596        H608   1.082       .  S
C597        C598   1.206       .  T
C598        C599   1.440       .  S
C599        C600   1.401       .  A
C599        C604   1.399       .  A
C600        C601   1.401       .  A
C600        H609   1.083       .  S
C601        C602   1.409       .  A
C601        H610   1.083       .  S
C602        C603   1.407       .  A
C603        C604   1.396       .  A
C603        H611   1.083   1_455  S
C604        H612   1.084       .  S
C613        C614   1.409       .  A
C613        C618   1.410       .  A
C614        C615   1.398       .  A
C614        H627   1.081       .  S
C615        C616   1.399       .  A
C615        H628   1.084       .  S
C616        C617   1.399       .  A
C616        C619   1.442       .  S
C617        C618   1.401       .  A
C617        H629   1.083       .  S
C618        H630   1.081       .  S
C619        C620   1.207       .  T
C620        C621   1.442       .  S
C621        C622   1.402       .  A
C621        C626   1.398       .  A
C622        C623   1.403       .  A
C622        H631   1.083       .  S
C623        C624   1.408       .  A
C623        H632   1.082       .  S
C624        C625   1.408       .  A
C625        C626   1.396       .  A
C625        H633   1.083       .  S
C626        H634   1.084       .  S
C635        C636   1.409       .  A
C635        C640   1.408       .  A
C636        C637   1.401       .  A
C636        H649   1.081       .  S
C637        C638   1.399       .  A
C637        H650   1.083       .  S
C638        C639   1.399   1_455  A
C638        C641   1.441       .  S
C639        C640   1.397   1_655  A
C639        H651   1.084       .  S
C640        H652   1.081   1_455  S
C641        C642   1.207       .  T
C642        C643   1.441       .  S
C643        C644   1.399       .  A
C643        C648   1.401       .  A
C644        C645   1.396       .  A
C644        H653   1.084       .  S
C645        C646   1.407       .  A
C645        H654   1.083       .  S
C646        C647   1.408       .  A
C647        C648   1.401       .  A
C647        H655   1.082       .  S
C648        H656   1.083       .  S
C657        C658   1.409       .  A
C657        C662   1.407       .  A
C658        C659   1.402       .  A
C658        H671   1.082       .  S
C659        C660   1.401       .  A
C659        H672   1.083       .  S
C660        C661   1.399       .  A
C660        C663   1.442       .  S
C661        C662   1.397       .  A
C661        H673   1.084       .  S
C662        H674   1.083       .  S
C663        C664   1.208       .  T
C664        C665   1.442       .  S
C665        C666   1.399       .  A
C665        C670   1.400       .  A
C666        C667   1.398       .  A
C666        H675   1.084       .  S
C667        C668   1.408       .  A
C667        H676   1.081       .  S
C668        C669   1.409       .  A
C669        C670   1.401       .  A
C669        H677   1.082       .  S
C670        H678   1.083       .  S
C679        C680   1.409       .  A
C679        C684   1.407       .  A
C680        C681   1.402       .  A
C680        H693   1.082       .  S
C681        C682   1.401       .  A
C681        H694   1.083       .  S
C682        C683   1.400       .  A
C682        C685   1.443       .  S
C683        C684   1.398       .  A
C683        H695   1.084       .  S
C684        H696   1.083   1_455  S
C685        C686   1.208       .  T
C686        C687   1.443       .  S
C687        C688   1.398       .  A
C687        C692   1.400       .  A
C688        C689   1.397       .  A
C688        H697   1.084       .  S
C689        C690   1.408       .  A
C689        H698   1.081       .  S
C690        C691   1.410       .  A
C691        C692   1.402       .  A
C691        H699   1.081       .  S
C692        H700   1.083       .  S
C701        C702   1.408       .  A
C701        C706   1.408       .  A
C702        C703   1.397       .  A
C702        H715   1.083       .  S
C703        C704   1.399       .  A
C703        H716   1.084       .  S
C704        C705   1.400       .  A
C704        C707   1.440       .  S
C705        C706   1.401       .  A
C705        H717   1.083       .  S
C706        H718   1.082       .  S
C707        C708   1.206       .  T
C708        C709   1.441       .  S
C709        C710   1.400       .  A
C709        C714   1.398       .  A
C710        C711   1.401       .  A
C710        H719   1.083       .  S
C711        C712   1.409       .  A
C711        H720   1.081       .  S
C712        C713   1.408   1_655  A
C713        C714   1.397   1_455  A
C713        H721   1.081       .  S
C714        H722   1.084   1_655  S
C723        C724   1.409       .  A
C723        C728   1.410       .  A
C724        C725   1.399       .  A
C724        H737   1.081   1_554  S
C725        C726   1.399       .  A
C725        H738   1.084   1_554  S
C726        C727   1.399       .  A
C726        C729   1.443       .  S
C727        C728   1.401       .  A
C727        H739   1.083       .  S
C728        H740   1.081       .  S
C729        C730   1.208       .  T
C730        C731   1.443       .  S
C731        C732   1.402       .  A
C731        C736   1.398       .  A
C732        C733   1.403       .  A
C732        H741   1.083   1_554  S
C733        C734   1.408       .  A
C733        H742   1.082   1_554  S
C734        C735   1.408       .  A
C735        C736   1.396       .  A
C735        H743   1.083       .  S
C736        H744   1.084       .  S
C745        C746   1.407   1_554  A
C745        C750   1.409       .  A
C746        C747   1.398       .  A
C746        H759   1.082       .  S
C747        C748   1.399   1_556  A
C747        H760   1.084       .  S
C748        C749   1.400       .  A
C748        C751   1.441       .  S
C749        C750   1.401       .  A
C749        H761   1.084       .  S
C750        H762   1.082       .  S
C751        C752   1.207       .  T
C752        C753   1.442       .  S
C753        C754   1.401       .  A
C753        C758   1.399       .  A
C754        C755   1.401       .  A
C754        H763   1.083       .  S
C755        C756   1.408       .  A
C755        H764   1.082       .  S
C756        C757   1.407       .  A
C757        C758   1.397       .  A
C757        H765   1.083   1_554  S
C758        H766   1.084   1_554  S
C767        C768   1.408       .  A
C767        C772   1.408       .  A
C768        C769   1.399       .  A
C768        H781   1.083       .  S
C769        C770   1.400       .  A
C769        H782   1.084       .  S
C770        C771   1.401       .  A
C770        C773   1.444       .  S
C771        C772   1.402       .  A
C771        H783   1.083       .  S
C772        H784   1.082   1_565  S
C773        C774   1.209       .  T
C774        C775   1.444       .  S
C775        C776   1.401       .  A
C775        C780   1.399       .  A
C776        C777   1.402       .  A
C776        H785   1.083       .  S
C777        C778   1.409       .  A
C777        H786   1.082       .  S
C778        C779   1.408       .  A
C779        C780   1.398       .  A
C779        H787   1.082       .  S
C780        H788   1.084       .  S
C789        C790   1.408       .  A
C789        C794   1.408       .  A
C790        C791   1.398       .  A
C790        H803   1.083       .  S
C791        C792   1.399       .  A
C791        H804   1.084       .  S
C792        C793   1.401       .  A
C792        C795   1.444       .  S
C793        C794   1.403       .  A
C793        H805   1.083       .  S
C794        H806   1.081       .  S
C795        C796   1.208       .  T
C796        C797   1.444       .  S
C797        C798   1.400       .  A
C797        C802   1.398       .  A
C798        C799   1.402       .  A
C798        H807   1.083       .  S
C799        C800   1.410       .  A
C799        H808   1.081       .  S
C800        C801   1.408       .  A
C801        C802   1.398       .  A
C801        H809   1.081       .  S
C802        H810   1.084       .  S
C811        C812   1.408   1_565  A
C811        C816   1.411       .  A
C812        C813   1.400       .  A
C812        H825   1.081       .  S
C813        C814   1.400   1_545  A
C813        H826   1.084       .  S
C814        C815   1.400       .  A
C814        C817   1.446       .  S
C815        C816   1.402       .  A
C815        H827   1.083       .  S
C816        H828   1.081       .  S
C817        C818   1.210       .  T
C818        C819   1.446   1_565  S
C819        C820   1.402   1_545  A
C819        C824   1.399       .  A
C820        C821   1.404       .  A
C820        H829   1.083       .  S
C821        C822   1.409   1_565  A
C821        H830   1.082       .  S
C822        C823   1.407       .  A
C823        C824   1.398       .  A
C823        H831   1.083       .  S
C824        H832   1.084       .  S
C833        C834   1.411       .  A
C833        C838   1.408       .  A
C834        C835   1.403       .  A
C834        H847   1.081       .  S
C835        C836   1.400       .  A
C835        H848   1.083       .  S
C836        C837   1.399       .  A
C836        C839   1.445       .  S
C837        C838   1.398       .  A
C837        H849   1.084       .  S
C838        H850   1.081       .  S
C839        C840   1.209       .  T
C840        C841   1.444       .  S
C841        C842   1.399       .  A
C841        C846   1.402       .  A
C842        C843   1.397   1_545  A
C842        H851   1.084   1_545  S
C843        C844   1.407   1_565  A
C843        H852   1.083       .  S
C844        C845   1.409       .  A
C845        C846   1.403       .  A
C845        H853   1.082       .  S
C846        H854   1.083       .  S
C855        C856   1.408       .  A
C855        C860   1.409       .  A
C856        C857   1.398       .  A
C856        H869   1.082       .  S
C857        C858   1.399       .  A
C857        H870   1.084       .  S
C858        C859   1.400       .  A
C858        C861   1.441       .  S
C859        C860   1.401       .  A
C859        H871   1.083       .  S
C860        H872   1.082       .  S
C861        C862   1.207       .  T
C862        C863   1.441       .  S
C863        C864   1.401       .  A
C863        C868   1.399       .  A
C864        C865   1.401       .  A
C864        H873   1.083       .  S
C865        C866   1.408       .  A
C865        H874   1.082       .  S
C866        C867   1.407       .  A
C867        C868   1.396       .  A
C867        H875   1.083   1_556  S
C868        H876   1.084       .  S
C877        C878   1.409       .  A
C877        C882   1.408       .  A
C878        C879   1.400       .  A
C878        H891   1.081       .  S
C879        C880   1.399       .  A
C879        H892   1.084       .  S
C880        C881   1.398       .  A
C880        C883   1.440   1_556  S
C881        C882   1.397       .  A
C881        H893   1.084       .  S
C882        H894   1.081       .  S
C883        C884   1.206       .  T
C884        C885   1.439       .  S
C885        C886   1.398       .  A
C885        C890   1.401       .  A
C886        C887   1.395       .  A
C886        H895   1.084       .  S
C887        C888   1.407       .  A
C887        H896   1.083   1_554  S
C888        C889   1.408       .  A
C889        C890   1.401       .  A
C889        H897   1.082       .  S
C890        H898   1.083       .  S
C899        C900   1.408       .  A
C899        C904   1.410   1_556  A
C900        C901   1.397       .  A
C900        H913   1.081       .  S
C901        C902   1.398       .  A
C901        H914   1.084       .  S
C902        C903   1.399   1_556  A
C902        C905   1.440       .  S
C903        C904   1.400       .  A
C903        H915   1.083       .  S
C904        H916   1.081       .  S
C905        C906   1.206   1_556  T
C906        C907   1.440       .  S
C907        C908   1.401   1_554  A
C907        C912   1.399       .  A
C908        C909   1.401       .  A
C908        H917   1.083       .  S
C909        C910   1.408   1_556  A
C909        H918   1.082       .  S
C910        C911   1.407       .  A
C911        C912   1.396       .  A
C911        H919   1.083       .  S
C912        H920   1.084       .  S
C921        C922   1.408       .  A
C921        C926   1.410       .  A
C922        C923   1.397       .  A
C922        H935   1.081       .  S
C923        C924   1.398       .  A
C923        H936   1.084       .  S
C924        C925   1.399       .  A
C924        C927   1.441       .  S
C925        C926   1.401       .  A
C925        H937   1.083       .  S
C926        H938   1.081       .  S
C927        C928   1.207       .  T
C928        C929   1.441       .  S
C929        C930   1.401   1_554  A
C929        C934   1.399       .  A
C930        C931   1.402       .  A
C930        H939   1.083       .  S
C931        C932   1.407   1_556  A
C931        H940   1.082       .  S
C932        C933   1.408       .  A
C933        C934   1.397       .  A
C933        H941   1.083       .  S
C934        H942   1.084       .  S
