geometry optimzed in LAMMPS
_audit_creation_date              2020-11-30 
_audit_creation_method            'lammps2cif' 
_symmetry_space_group_name_H-M    'P1' 
_symmetry_Int_Tables_number       1 
_symmetry_cell_setting            triclinic 
loop_ 
_symmetry_equiv_pos_as_xyz 
  x,y,z 
_cell_length_a                    48.08687356 
_cell_length_b                    48.17726767806086 
_cell_length_c                    47.78271914455779 
_cell_angle_alpha                 90.03883522376077 
_cell_angle_beta                  90.3176142051092 
_cell_angle_gamma                 89.30877104827289 
loop_ 
_atom_site_label 
_atom_site_type_symbol 
_atom_site_fract_x 
_atom_site_fract_y 
_atom_site_fract_z 
_atom_site_charge 
O1          O  0.71695723  0.76200762  0.79575067    -0.88600
C2          C  0.73245612  0.69410067  0.74779790     0.87400
Mg3        Mg  0.69321031  0.79617154  0.77990958     1.58100
O4          O  0.79188070  0.73428047  0.75668440    -0.88400
O5          O  0.75961391  0.75367164  0.81090755    -0.75700
C6          C  0.75173912  0.82254530  0.65723994     0.92400
O7          O  0.68032673  0.73504625  0.74678582    -0.75500
O8          O  0.72849821  0.82614067  0.66941426    -0.83000
Mg9        Mg  0.69936827  0.72197224  0.78926008     1.58000
C10         C  0.84210641  0.75539814  0.69123164     0.92400
O11         O  0.71491938  0.70778516  0.83290181    -0.81300
H12         H  0.81983041  0.75132133  0.78234623    -0.06600
C13         C  0.74882612  0.74784674  0.68471725     0.87300
O14         O  0.73401395  0.81955571  0.77127265    -0.75800
O15         O  0.73638315  0.70901000  0.76850799    -0.88500
O16         O  0.83261743  0.73285685  0.70149132    -0.81400
C17         C  0.80438850  0.66032507  0.75330462     0.92500
C18         C  0.73604816  0.69537555  0.84344275     0.92300
Mg19       Mg  0.78675028  0.79141908  0.71019382     1.58000
O20         O  0.77186320  0.80924436  0.66859556    -0.81300
O21         O  0.80634139  0.77678044  0.75124068    -0.75500
O22         O  0.79093701  0.67091371  0.77375865    -0.81400
O23         O  0.65870984  0.73400099  0.80892030    -0.83100
O24         O  0.69286311  0.84458379  0.72451324    -0.81400
C25         C  0.80692965  0.75365479  0.76387579     0.86800
O26         O  0.74897037  0.80506976  0.73047650    -0.88500
O27         O  0.76796469  0.75184518  0.70165599    -0.88600
O28         O  0.72681147  0.76278830  0.68430061    -0.75700
Mg29       Mg  0.77462746  0.71266977  0.79095634     1.58000
O30         O  0.81019024  0.67453810  0.73153739    -0.83100
H31         H  0.73579675  0.78618855  0.82391262    -0.06800
O32         O  0.69383319  0.77775646  0.73929958    -0.88300
H33         H  0.66836297  0.75791288  0.71302203    -0.06600
H34         H  0.76882288  0.83405835  0.75263604    -0.06800
C35         C  0.68018237  0.75722614  0.73232500     0.86800
C36         C  0.73707553  0.76783850  0.81092357     0.87300
C37         C  0.75133124  0.82022594  0.75124660     0.87400
H38         H  0.75049340  0.73053826  0.67038895    -0.06800
O39         O  0.74830930  0.69461613  0.72662501    -0.75800
Mg40       Mg  0.71103653  0.80249287  0.70630436     1.58000
H41         H  0.71439573  0.68095392  0.74728597    -0.06800
C42         C  0.64206770  0.75412649  0.80406420     0.92400
O43         O  0.67020368  0.83324500  0.76332992    -0.83000
C44         C  0.67582881  0.85059234  0.74415845     0.92400
O45         O  0.75803546  0.69107900  0.82928195    -0.83000
Mg46       Mg  0.78969983  0.71523394  0.71599325     1.58200
O47         O  0.65020735  0.77613019  0.79167543    -0.81400
O48         O  0.82740892  0.77759374  0.68999286    -0.83000
C49         C  0.61412505  0.00706967  0.75325461    -0.02800
O50         O  0.75544744  0.21048603  0.77070323    -0.88600
C51         C  0.68226854  0.25115012  0.76796029     0.87400
Mg52       Mg  0.79097807  0.22806012  0.79076561     1.58100
O53         O  0.71801321  0.24726609  0.70436431    -0.88400
O54         O  0.74249437  0.19217385  0.73087719    -0.75700
C55         C  0.79817264  0.35684614  0.74003879     0.92400
O56         O  0.72920089  0.25227413  0.81476874    -0.75500
O57         O  0.80458071  0.34396115  0.76261590    -0.83000
Mg58       Mg  0.71844258  0.20991783  0.79477728     1.58000
C59         C  0.72955064  0.31371018  0.65398607     0.92400
O60         O  0.70635759  0.16589467  0.77791044    -0.81300
H61         H  0.73838655  0.22363148  0.67667210    -0.06600
C62         C  0.72815600  0.31974602  0.74764848     0.87300
O63         O  0.80893341  0.24088560  0.74867566    -0.75800
O64         O  0.69741660  0.23122490  0.76139173    -0.88500
O65         O  0.70911783  0.30147312  0.66550280    -0.81400
C66         C  0.64272121  0.24671688  0.69668720     0.92500
C67         C  0.69007657  0.15626373  0.75912316     0.92300
Mg68       Mg  0.77129416  0.30075907  0.70582694     1.58000
O69         O  0.78512699  0.34488168  0.72004650    -0.81300
O70         O  0.75935534  0.25808055  0.68824797    -0.75500
O71         O  0.65520201  0.22641167  0.70875167    -0.81400
O72         O  0.74000056  0.18895991  0.83153136    -0.83100
O73         O  0.83096961  0.28931354  0.79658832    -0.81400
C74         C  0.73821163  0.24245157  0.68901073     0.86800
O75         O  0.79104714  0.28221969  0.74090845    -0.88500
O76         O  0.73279248  0.30324782  0.72837984    -0.88600
O77         O  0.74437496  0.32169195  0.76857493    -0.75700
Mg78       Mg  0.69915954  0.21106088  0.72151438     1.58000
O79         O  0.65484807  0.26965193  0.69206481    -0.83100
H80         H  0.77887800  0.18241538  0.75051960    -0.06800
O81         O  0.76827274  0.26647585  0.79612334    -0.88300
H82         H  0.74845252  0.28793129  0.82597502    -0.06600
H83         H  0.81982741  0.26518484  0.71600290    -0.06800
C84         C  0.74891115  0.26961862  0.81288847     0.86800
C85         C  0.75975855  0.19443926  0.75095856     0.87300
C86         C  0.80746993  0.26325833  0.73472112     0.87400
H87         H  0.70930040  0.33218525  0.74711864    -0.06800
O88         O  0.68025147  0.27294008  0.75299361    -0.75800
Mg89       Mg  0.78710342  0.30347108  0.78033884     1.58000
H90         H  0.67113490  0.25039630  0.78753692    -0.06800
C91         C  0.76063029  0.19806826  0.84538833     0.92400
O92         O  0.82942369  0.24498505  0.81001263    -0.83000
C93         C  0.84192202  0.26792992  0.80831869     0.92400
O94         O  0.68062873  0.17138691  0.73926387    -0.83000
Mg95       Mg  0.69605508  0.28628167  0.70969434     1.58200
O96         O  0.77804442  0.21456930  0.83473956    -0.81400
O97         O  0.75221532  0.31837738  0.66684694    -0.83000
C98         C  0.86891591  0.50575655  0.74623241    -0.02800
C99         C  0.75607247  0.87829076  0.49785163    -0.02800
O100        O  0.76752967  0.75237876  0.19784300    -0.88600
C101        C  0.76231385  0.68393045  0.24592178     0.87400
Mg102      Mg  0.79137461  0.78686348  0.21107933     1.58100
O103        O  0.70277056  0.72643223  0.24539812    -0.88400
O104        O  0.72471195  0.74297822  0.18563886    -0.75700
C105        C  0.75548524  0.80939873  0.34370632     0.92400
O106        O  0.81333935  0.72545139  0.23860984    -0.75500
O107        O  0.77504667  0.81282833  0.32624644    -0.83000
Mg108      Mg  0.78800963  0.71305142  0.19952441     1.58000
C109        C  0.66064753  0.74431896  0.31843500     0.92400
O110        O  0.76642561  0.69846624  0.15868518    -0.81300
H111        H  0.67201089  0.74606615  0.22481717    -0.06600
C112        C  0.75465708  0.73559988  0.31219004     0.87300
O113        O  0.75163841  0.80847178  0.22750985    -0.75800
O114        O  0.75532044  0.69850687  0.22566931    -0.88500
O115        O  0.66836351  0.72445118  0.30257080    -0.81400
C116        C  0.68817206  0.65355281  0.25093322     0.92500
C117        C  0.74550478  0.68375065  0.15218157     0.92300
Mg118      Mg  0.71247030  0.78024052  0.29705308     1.58000
O119        O  0.73398404  0.79522868  0.33784524    -0.81300
O120        O  0.68759066  0.76777570  0.25767839    -0.75500
O121        O  0.70029494  0.66116819  0.22857898    -0.81400
O122        O  0.82362825  0.72790167  0.17319740    -0.83100
O123        O  0.80056476  0.83267283  0.26775280    -0.81400
C124        C  0.68675979  0.74646317  0.24196587     0.86800
O125        O  0.74548338  0.79471203  0.27083469    -0.88500
O126        O  0.73331480  0.74103813  0.29858433    -0.88600
O127        O  0.77654509  0.74991467  0.30984733    -0.75700
Mg128      Mg  0.71408076  0.70273878  0.20891382     1.58000
O129        O  0.68615907  0.66936733  0.27206143    -0.83100
H130        H  0.74624023  0.77547669  0.17012876    -0.06800
O131        O  0.79863636  0.76707953  0.25041399    -0.88300
H132        H  0.82954541  0.74756288  0.27087803    -0.06600
H133        H  0.72047753  0.82272208  0.25236369    -0.06800
C134        C  0.81458721  0.74701723  0.25391850     0.86800
C135        C  0.74644631  0.75758657  0.18377823     0.87300
C136        C  0.73859999  0.80935052  0.25060737     0.87400
H137        H  0.75499468  0.71762386  0.32572350    -0.06800
O138        O  0.74943073  0.68491768  0.26909872    -0.75800
Mg139      Mg  0.78699405  0.79035212  0.28692555     1.58000
H140        H  0.78045106  0.67058377  0.24413266    -0.06800
C141        C  0.83956191  0.74849677  0.17676954     0.92400
O142        O  0.81479634  0.82421712  0.22432354    -0.83000
C143        C  0.81268377  0.84023055  0.24534619     0.92400
O144        O  0.72591186  0.67918952  0.16935962    -0.83000
Mg145      Mg  0.70963656  0.70667044  0.28494315     1.58200
O146        O  0.83257333  0.76904516  0.19220273    -0.81400
O147        O  0.67617991  0.76500096  0.32339452    -0.83000
C148        C  0.75382456  0.62353539  0.99505943    -0.02800
C149        C  0.50239108  0.74556314  0.37181390    -0.02800
C150        C  0.12235818  0.99467124  0.75037982    -0.02800
C151        C  0.76067756  0.12546084  0.99699137    -0.02800
C152        C  0.36028114  0.48870618  0.73801202    -0.02800
C153        C  0.75016992  0.37504584  0.49901944    -0.02800
C154        C  0.62185637  0.50107109  0.23672460    -0.02800
C155        C  0.24757340  0.62339280  0.50625641    -0.02800
C156        C  0.99880699  0.74708766  0.12315489    -0.02800
O157        O  0.27573445  0.77759127  0.28497145    -0.88600
C158        C  0.28229575  0.76121238  0.20213063     0.87400
Mg159      Mg  0.27704300  0.74603281  0.31610419     1.58100
O160        O  0.21397438  0.77602571  0.22394720    -0.88400
O161        O  0.24594848  0.80975897  0.27112978    -0.75700
C162        C  0.19710480  0.64588769  0.26784047     0.92400
O163        O  0.31105848  0.72928698  0.25436843    -0.75500
O164        O  0.21731591  0.65052981  0.28428392    -0.83000
Mg165      Mg  0.30828607  0.77674390  0.25411007     1.58000
C166        C  0.14877620  0.72728379  0.19645632     0.92400
O167        O  0.30954035  0.82415248  0.25251987    -0.81300
H168        H  0.18597235  0.80161450  0.24143090    -0.06600
C169        C  0.23381082  0.69407678  0.21698313     0.87300
O170        O  0.22918851  0.74501429  0.31731242    -0.75800
O171        O  0.27674165  0.77604055  0.22251945    -0.88500
O172        O  0.16917604  0.74133502  0.18756565    -0.81400
C173        C  0.22974515  0.79876731  0.15405586     0.92500
C174        C  0.29878299  0.84523800  0.24022961     0.92300
Mg175      Mg  0.18495151  0.71326890  0.25207148     1.58000
O176        O  0.18567023  0.66504972  0.25312813    -0.81300
O177        O  0.18073416  0.76100255  0.25119179    -0.75500
O178        O  0.24329130  0.80982735  0.17427650    -0.81400
O179        O  0.34373767  0.77547780  0.28673643    -0.83100
O180        O  0.25050274  0.68118844  0.33170431    -0.81400
C181        C  0.19324031  0.78047693  0.23862726     0.86800
O182        O  0.21586027  0.71585765  0.28461500    -0.88500
O183        O  0.21818264  0.71390099  0.22227194    -0.88600
O184        O  0.24753050  0.68167820  0.23608230    -0.75700
Mg185      Mg  0.24501295  0.80798984  0.22313532     1.58000
O186        O  0.21470929  0.77756974  0.15756692    -0.83100
H187        H  0.25708092  0.80366788  0.31168841    -0.06800
O188        O  0.27840967  0.71586626  0.28295431    -0.88300
H189        H  0.30499175  0.68910799  0.26509058    -0.06600
H190        H  0.18894824  0.73465545  0.31038120    -0.06800
C191        C  0.29854685  0.71051281  0.26780976     0.86800
C192        C  0.25992288  0.79739521  0.29015672     0.87300
C193        C  0.21042190  0.73158347  0.30441920     0.87400
H194        H  0.23657336  0.68774145  0.19545660    -0.06800
O195        O  0.26373639  0.74754178  0.18933926    -0.75800
Mg196      Mg  0.24813704  0.68447377  0.28402339     1.58000
H197        H  0.30370962  0.75905553  0.19562553    -0.06800
C198        C  0.34600017  0.75947047  0.30791853     0.92400
O199        O  0.27701580  0.71354025  0.35105269    -0.83000
C200        C  0.26316960  0.69125656  0.35278948     0.92400
O201        O  0.27698133  0.84332063  0.22496383    -0.83000
Mg202      Mg  0.21621549  0.74528566  0.19133183     1.58200
O203        O  0.32484807  0.74736177  0.31809825    -0.81400
O204        O  0.15076963  0.71229541  0.21835185    -0.83000
C205        C  0.26430068  0.87362240  0.00752082    -0.02800
C206        C  0.48838269  0.24280672  0.62824348    -0.02800
O207        O  0.27615001  0.27296630  0.79928055    -0.88600
C208        C  0.19435867  0.28036566  0.78354291     0.87400
Mg209      Mg  0.30602503  0.27540783  0.76659014     1.58100
O210        O  0.21741080  0.21242713  0.79718871    -0.88400
O211        O  0.26406328  0.24368079  0.83192437    -0.75700
C212        C  0.25934844  0.19154290  0.66474661     0.92400
O213        O  0.24499031  0.30778543  0.75247115    -0.75500
O214        O  0.27463900  0.21294290  0.66703816    -0.83000
Mg215      Mg  0.24552195  0.30504808  0.80088268     1.58000
C216        C  0.19178278  0.14658638  0.74933990     0.92400
O217        O  0.24532838  0.30571591  0.84988240    -0.81300
H218        H  0.23577444  0.18501885  0.82291621    -0.06600
C219        C  0.20937486  0.23082868  0.71404653     0.87300
O220        O  0.30922175  0.22767428  0.76529104    -0.75800
O221        O  0.21425659  0.27448826  0.79904991    -0.88500
O222        O  0.18212294  0.16736152  0.76292480    -0.81400
C223        C  0.14820622  0.22869068  0.82153210     0.92500
C224        C  0.23131242  0.29469521  0.86957695     0.92300
Mg225      Mg  0.24566597  0.18271736  0.73400803     1.58000
O226        O  0.24702561  0.18129717  0.68589218    -0.81300
O227        O  0.24543255  0.17952888  0.78199321    -0.75500
O228        O  0.16910062  0.24021560  0.83290682    -0.81400
O229        O  0.27750206  0.33888946  0.80099108    -0.83100
O230        O  0.32394240  0.24643902  0.70152311    -0.81400
C231        C  0.23260302  0.19196639  0.80161295     0.86800
O232        O  0.27725354  0.21352660  0.73552894    -0.88500
O233        O  0.21527006  0.21592825  0.73434219    -0.88600
O234        O  0.22785116  0.24407915  0.70088106    -0.75700
Mg235      Mg  0.21632091  0.24248836  0.83005446     1.58000
O236        O  0.15011241  0.21518440  0.79870856    -0.83100
H237        H  0.30395628  0.25498308  0.82495728    -0.06800
O238        O  0.27336498  0.27558586  0.73596600    -0.88300
H239        H  0.25283316  0.30229485  0.71109540    -0.06600
H240        H  0.30402752  0.18736074  0.75429301    -0.06800
C241        C  0.25717073  0.29547935  0.73224134     0.86800
C242        C  0.28233812  0.25748879  0.81904948     0.87300
C243        C  0.29720112  0.20863391  0.75141186     0.87400
H244        H  0.18781883  0.23334311  0.70791414    -0.06800
O245        O  0.18232400  0.26218725  0.76868556    -0.75800
Mg246      Mg  0.27552569  0.24486342  0.70319207     1.58000
H247        H  0.18784286  0.30183867  0.78161642    -0.06800
C248        C  0.29542174  0.34345997  0.78212243     0.92400
O249        O  0.33997662  0.27536292  0.73417563    -0.83000
C250        C  0.34385050  0.25969641  0.71307012     0.92400
O251        O  0.21592394  0.27378619  0.86539046    -0.83000
Mg252      Mg  0.18450040  0.21475791  0.76622942     1.58200
O253        O  0.30541762  0.32390464  0.76695757    -0.81400
O254        O  0.21293640  0.14871767  0.73361285    -0.83000
C255        C  0.99265985  0.24592086  0.88012981    -0.02800
O256        O  0.78555041  0.22165980  0.21886284    -0.88600
C257        C  0.70274825  0.21460629  0.23211115     0.87400
Mg258      Mg  0.81575595  0.22188056  0.25171634     1.58100
O259        O  0.72345931  0.28163626  0.21404713    -0.88400
O260        O  0.77248041  0.24879326  0.18425139    -0.75700
C261        C  0.76396154  0.31147260  0.34389432     0.92400
O262        O  0.75391334  0.18890335  0.26736363    -0.75500
O263        O  0.77876273  0.28940456  0.34303923    -0.83000
Mg264      Mg  0.75523453  0.18916522  0.21935375     1.58000
C265        C  0.69414362  0.35000169  0.25654766     0.92400
O266        O  0.75598387  0.18562386  0.17149501    -0.81300
H267        H  0.74068756  0.30727497  0.18642847    -0.06600
C268        C  0.71479668  0.26841430  0.29757454     0.87300
O269        O  0.81687789  0.26955187  0.25071124    -0.75800
O270        O  0.72304291  0.21968544  0.21728349    -0.88500
O271        O  0.68502274  0.32819006  0.24475974    -0.81400
C272        C  0.65611209  0.26458110  0.18840538     0.92500
C273        C  0.74422578  0.19489691  0.14931710     0.92300
Mg274      Mg  0.75011417  0.31573428  0.27472885     1.58000
O275        O  0.75130226  0.32106845  0.32239343    -0.81300
O276        O  0.75044425  0.31565862  0.22686516    -0.75500
O277        O  0.67702505  0.25152740  0.17823958    -0.81400
O278        O  0.78804561  0.15519070  0.22293362    -0.83100
O279        O  0.82898246  0.25399469  0.31492565    -0.81400
C280        C  0.73784955  0.30187025  0.20817500     0.86800
O281        O  0.78223155  0.28448642  0.27644799    -0.88500
O282        O  0.72035163  0.28253483  0.27678328    -0.88600
O283        O  0.73351822  0.25555441  0.31140684    -0.75700
Mg284      Mg  0.72471252  0.24934109  0.18358507     1.58000
O285        O  0.65768058  0.27874129  0.21077206    -0.83100
H286        H  0.81276694  0.23910932  0.19298776    -0.06800
O287        O  0.78192829  0.22190849  0.28115104    -0.88300
H288        H  0.76295177  0.19677812  0.30809925    -0.06600
H289        H  0.80908617  0.31029483  0.25857402    -0.06800
C290        C  0.76655440  0.20219048  0.28647805     0.86800
C291        C  0.79119733  0.23622672  0.19840477     0.87300
C292        C  0.80300847  0.28906034  0.26212421     0.87400
H293        H  0.69327434  0.26601204  0.30342926    -0.06800
O294        O  0.68956693  0.23360252  0.24502003    -0.75800
Mg295      Mg  0.78115833  0.25519758  0.31064354     1.58000
H296        H  0.69685221  0.19324290  0.23518176    -0.06800
C297        C  0.80966914  0.15328525  0.23831205     0.92400
O298        O  0.84898073  0.22370649  0.28589870    -0.83000
C299        C  0.85034177  0.24039545  0.30653276     0.92400
O300        O  0.72788269  0.21590763  0.14985886    -0.83000
Mg301      Mg  0.69025495  0.28104282  0.24425086     1.58200
O302        O  0.81965250  0.17417370  0.25117467    -0.81400
O303        O  0.71635903  0.34968813  0.27125924    -0.83000
C304        C  0.87036976  0.99706416  0.24703096    -0.02800
C305        C  0.00524924  0.24942470  0.37427199    -0.02800
O306        O  0.26556870  0.30741153  0.24099948    -0.88600
C307        C  0.19276420  0.26738313  0.24700564     0.87400
Mg308      Mg  0.29959120  0.29043542  0.21855609     1.58100
O309        O  0.23403553  0.26357534  0.30764781    -0.88400
O310        O  0.25762020  0.31970295  0.28442202    -0.75700
C311        C  0.30981166  0.15795032  0.25663140     0.92400
O312        O  0.23563010  0.26824921  0.19611662    -0.75500
O313        O  0.31355061  0.17259415  0.23481646    -0.83000
Mg314      Mg  0.22611999  0.30883290  0.21956227     1.58000
C315        C  0.24619327  0.19129267  0.35138103     0.92400
O316        O  0.21373712  0.35121234  0.24000966    -0.81300
H317        H  0.25451298  0.28304578  0.33826751    -0.06600
C318        C  0.23854234  0.19624137  0.25699639     0.87300
O319        O  0.31943003  0.27309205  0.25868248    -0.75800
O320        O  0.20938798  0.28570821  0.25361321    -0.88500
O321        O  0.22605949  0.20605325  0.34181098    -0.81400
C322        C  0.16055347  0.26746980  0.32074518     0.92500
C323        C  0.20145411  0.35924273  0.26233788     0.92300
Mg324      Mg  0.28491213  0.20925129  0.29886942     1.58000
O325        O  0.29825166  0.16767898  0.27863637    -0.81300
O326        O  0.27500054  0.24951097  0.32255876    -0.75500
O327        O  0.17113292  0.28812439  0.30824057    -0.81400
O328        O  0.24323826  0.33069208  0.18074571    -0.83100
O329        O  0.33832630  0.22934030  0.20735832    -0.81400
C330        C  0.25416674  0.26590910  0.32365432     0.86800
O331        O  0.30159177  0.23175897  0.26449471    -0.88500
O332        O  0.24491281  0.20971543  0.27806787    -0.88600
O333        O  0.25305982  0.19673133  0.23488911    -0.75700
Mg334      Mg  0.21506519  0.30179115  0.29498458     1.58000
O335        O  0.17344857  0.24443447  0.32372229    -0.83100
H336        H  0.29123500  0.33201215  0.26243047    -0.06800
O337        O  0.27615489  0.25324970  0.21153970    -0.88300
H338        H  0.25534862  0.23399043  0.18099321    -0.06600
H339        H  0.33154485  0.24646214  0.28937819    -0.06800
C340        C  0.25602240  0.25124373  0.19544934     0.86800
C341        C  0.27207034  0.32050665  0.26228570     0.87300
C342        C  0.31832033  0.24992880  0.27131625     0.87400
H343        H  0.21949317  0.18454992  0.25703481    -0.06800
O344        O  0.19127014  0.24465500  0.26040850    -0.75800
Mg345      Mg  0.29528384  0.21479512  0.22304531     1.58000
H346        H  0.17973690  0.27042308  0.22872534    -0.06800
C347        C  0.26448926  0.32315926  0.16660475     0.92400
O348        O  0.33694428  0.27422430  0.19608159    -0.83000
C349        C  0.34935130  0.25085987  0.19665571     0.92400
O350        O  0.19722451  0.34289680  0.28269570    -0.83000
Mg351      Mg  0.21063306  0.22667705  0.30077715     1.58200
O352        O  0.28380130  0.30831854  0.17734769    -0.81400
O353        O  0.26833773  0.18692646  0.33741286    -0.83000
C354        C  0.25676264  0.38186054  0.00979385    -0.02800
C355        C  0.36450996  0.99870281  0.24686293    -0.02800
O356        O  0.96097338  0.00075808  0.47229869    -0.88600
C357        C  0.00827779  0.93089771  0.47969619     0.87400
Mg358      Mg  0.97276502  0.03823589  0.45282634     1.58100
O359        O  0.00056060  0.97018902  0.54094049    -0.88400
O360        O  0.94389640  0.98770338  0.51250070    -0.75700
C361        C  0.09939879  0.06213594  0.50433089     0.92400
O362        O  0.00725660  0.97810688  0.43089624    -0.75500
O363        O  0.08420401  0.06738017  0.48299338    -0.83000
Mg364      Mg  0.96612607  0.96285594  0.44961257     1.58000
C365        C  0.06750824  0.98918994  0.59079112     0.92400
O366        O  0.92350116  0.94837954  0.46605083    -0.81300
H367        H  0.97598260  0.98821756  0.56942527    -0.06600
C368        C  0.07126816  0.98613245  0.49581050     0.87300
O369        O  0.98428714  0.05704673  0.49521759    -0.75800
O370        O  0.98763677  0.94551561  0.48493519    -0.88500
O371        O  0.05580861  0.96831629  0.57955816    -0.81400
C372        C  0.00537607  0.89725203  0.55546547     0.92500
C373        C  0.91347509  0.93375457  0.48574366     0.92300
Mg374      Mg  0.04945544  0.02737076  0.53862544     1.58000
O375        O  0.09183636  0.04535720  0.52346283    -0.81300
O376        O  0.00856628  0.01183981  0.55769592    -0.75500
O377        O  0.98441192  0.90441738  0.54040966    -0.81400
O378        O  0.94489515  0.97935525  0.41036707    -0.83100
O379        O  0.02678782  0.08615995  0.45156049    -0.81400
C380        C  0.99442645  0.98970094  0.55670498     0.86800
O381        O  0.02703447  0.04343000  0.50371584    -0.88500
O382        O  0.05535708  0.98897820  0.51594950    -0.88600
O383        O  0.07101500  0.00297607  0.47524972    -0.75700
Mg384      Mg  0.96626332  0.94698070  0.52423066     1.58000
O385        O  0.02639195  0.91292360  0.55831800    -0.83100
H386        H  0.93020134  0.02164206  0.49118660    -0.06800
O387        O  0.01394460  0.02065527  0.44659607    -0.88300
H388        H  0.03926059  0.00236382  0.41890246    -0.06600
H389        H  0.00658961  0.06960523  0.52895391    -0.06800
C390        C  0.02067127  0.00077945  0.43139609     0.86800
C391        C  0.94429735  0.00399585  0.49164759     0.87300
C392        C  0.00631557  0.05748202  0.50990901     0.87400
H393        H  0.08540994  0.96852315  0.49540831    -0.06800
O394        O  0.03001029  0.93141473  0.49491305    -0.75800
Mg395      Mg  0.04760640  0.04388696  0.46436271     1.58000
H396        H  0.00818252  0.91806018  0.46112870    -0.06800
C397        C  0.94606893  0.00274764  0.39816722     0.92400
O398        O  0.98396873  0.07965309  0.43466328    -0.83000
C399        C  0.00444557  0.09530549  0.43996525     0.92400
O400        O  0.92832257  0.92501979  0.50620514    -0.83000
Mg401      Mg  0.04123478  0.95197217  0.53677633     1.58200
O402        O  0.95719143  0.02377870  0.40969568    -0.81400
O403        O  0.07074451  0.01189204  0.57779489    -0.83000
O404        O  0.03905307  0.02765305  0.97597457    -0.88600
C405        C  0.95833036  0.00579179  0.96912512     0.87400
Mg406      Mg  0.07254835  0.99804134  0.97610994     1.58100
O407        O  0.97896593  0.02709242  0.03599641    -0.88400
O408        O  0.02288117  0.06156724  0.00210353    -0.75700
C409        C  0.03245069  0.90059046  0.06536357     0.92400
O410        O  0.01255052  0.97611473  0.94331760    -0.75500
O411        O  0.04816005  0.90287218  0.04414690    -0.83000
Mg412      Mg  0.00858814  0.02370553  0.94299613     1.58000
C413        C  0.95981435  0.98339766  0.10580926     0.92400
O414        O  0.00412477  0.07104308  0.93882007    -0.81300
H415        H  0.99672842  0.05549111  0.06057057    -0.06600
C416        C  0.97910719  0.94321551  0.02326487     0.87300
O417        O  0.07555698  0.99934125  0.02391567    -0.75800
O418        O  0.97700894  0.02263653  0.97380620    -0.88500
O419        O  0.94751660  0.99457819  0.08481972    -0.81400
C420        C  0.90756796  0.04395665  0.01750681     0.92500
C421        C  0.98986230  0.09177935  0.94758466     0.92300
Mg422      Mg  0.01383909  0.96849450  0.06943716     1.58000
O423        O  0.01794191  0.92087375  0.07468365    -0.81300
O424        O  0.00985388  0.01607999  0.06840886    -0.75500
O425        O  0.92717174  0.05597862  0.00444978    -0.81400
O426        O  0.04076639  0.02332150  0.90851283    -0.83100
O427        O  0.09399163  0.93530837  0.00755372    -0.81400
C428        C  0.99482125  0.03376029  0.05533133     0.86800
O429        O  0.04518195  0.96928768  0.03865223    -0.88500
O430        O  0.98309492  0.96457291  0.03700268    -0.88600
O431        O  0.99878276  0.93060104  0.01078081    -0.75700
Mg432      Mg  0.97531369  0.05673923  0.00287988     1.58000
O433        O  0.91211668  0.02329111  0.03360602    -0.83100
H434        H  0.06369908  0.05659516  0.99247538    -0.06800
O435        O  0.04249146  0.96520166  0.97652645    -0.88300
H436        H  0.02562128  0.93672074  0.95139842    -0.06600
H437        H  0.07059398  0.98933783  0.06478706    -0.06800
C438        C  0.02723800  0.95844767  0.95676455     0.86800
C439        C  0.04279203  0.04894878  0.98992234     0.87300
C440        C  0.06421920  0.98568664  0.04338003     0.87400
H441        H  0.95815858  0.93557436  0.02108641    -0.06800
O442        O  0.94706227  0.99208968  0.98862983    -0.75800
Mg443      Mg  0.04616745  0.93545243  0.00964201     1.58000
H444        H  0.95223254  0.00177853  0.94770260    -0.06800
C445        C  0.06343941  0.00957861  0.90686184     0.92400
O446        O  0.10852511  0.96732713  0.97730334    -0.83000
C447        C  0.11293735  0.94626234  0.99281137     0.92400
O448        O  0.97357392  0.08970620  0.96842180    -0.83000
Mg449      Mg  0.94935901  0.99383115  0.03651931     1.58200
O450        O  0.07474348  0.99822993  0.92823483    -0.81400
O451        O  0.98221145  0.96941574  0.10339288    -0.83000
O452        O  0.51560573  0.97545443  0.44586553    -0.88600
C453        C  0.44210026  0.97977716  0.48797528     0.87400
Mg454      Mg  0.55233863  0.95641616  0.46351530     1.58100
O455        O  0.47733166  0.04257276  0.48485645    -0.88400
O456        O  0.50165001  0.01616824  0.43003239    -0.75700
C457        C  0.55846182  0.00637584  0.59384679     0.92400
O458        O  0.48989303  0.93244833  0.48916538    -0.75500
O459        O  0.56410357  0.98407096  0.58064959    -0.83000
Mg460      Mg  0.47780618  0.95238152  0.44707482     1.58000
C461        C  0.48715926  0.09238604  0.55360433     0.92400
O462        O  0.46459924  0.96885141  0.40276559    -0.81300
H463        H  0.49527022  0.07251517  0.46260680    -0.06600
C464        C  0.48737684  0.99765928  0.55616450     0.87300
O465        O  0.56776109  0.99908046  0.47800982    -0.75800
O466        O  0.45767306  0.98616066  0.46851298    -0.88500
O467        O  0.46852519  0.08156223  0.53809887    -0.81400
C468        C  0.40246200  0.05095434  0.48379048     0.92500
C469        C  0.44850365  0.98800426  0.39332037     0.92300
Mg470      Mg  0.52929959  0.04173468  0.53983675     1.58000
O471        O  0.54483311  0.02639070  0.58270499    -0.81300
O472        O  0.51670478  0.06137981  0.49763356    -0.75500
O473        O  0.41280488  0.03776544  0.46296420    -0.81400
O474        O  0.49754148  0.91453384  0.42719726    -0.83100
O475        O  0.59199756  0.95608736  0.52554650    -0.81400
C476        C  0.49607820  0.05948507  0.48101106     0.86800
O477        O  0.54891494  0.00749965  0.51895502    -0.88500
O478        O  0.49187302  0.01821876  0.54140454    -0.88600
O479        O  0.50383156  0.97682125  0.55682871    -0.75700
Mg480      Mg  0.45814780  0.02562602  0.44828121     1.58000
O481        O  0.41686564  0.05594647  0.50555767    -0.83100
H482        H  0.53808680  0.99757651  0.41898492    -0.06800
O483        O  0.52975229  0.95055947  0.50184058    -0.88300
H484        H  0.51161306  0.92047513  0.52371058    -0.06600
H485        H  0.57611143  0.03316354  0.50139981    -0.06800
C486        C  0.51082798  0.93375115  0.50548382     0.86800
C487        C  0.51917441  0.99615339  0.43100277     0.87300
C488        C  0.56491979  0.01388920  0.49986965     0.87400
H489        H  0.46828554  0.99692546  0.56797190    -0.06800
O490        O  0.43964765  0.99472225  0.50981275    -0.75800
Mg491      Mg  0.54727635  0.96750248  0.53934126     1.58000
H492        H  0.43089386  0.96049137  0.48674588    -0.06800
C493        C  0.52011839  0.90146020  0.43247538     0.92400
O494        O  0.59320145  0.93915992  0.48207839    -0.83000
C495        C  0.60516900  0.94474189  0.50532730     0.92400
O496        O  0.43996473  0.00800857  0.40855704    -0.83000
Mg497      Mg  0.45591007  0.03748066  0.52336910     1.58200
O498        O  0.54005988  0.91244883  0.44633568    -0.81400
O499        O  0.50894477  0.07901624  0.56110179    -0.83000
C500        C  0.25362904  0.12697779  0.50834907    -0.02800
O501        O  0.53679495  0.03940836  0.97560898    -0.88600
C502        C  0.53782730  0.95867495  0.99760171     0.87400
Mg503      Mg  0.53716878  0.07216896  0.00456593     1.58100
O504        O  0.47195284  0.98463940  0.97770714    -0.88400
O505        O  0.50796631  0.02704029  0.94248827    -0.75700
C506        C  0.44830910  0.03533609  0.10587104     0.92400
O507        O  0.56706115  0.01110664  0.02815875    -0.75500
O508        O  0.46886382  0.05144164  0.10223097    -0.83000
Mg509      Mg  0.56762363  0.00718398  0.98026256     1.58000
C510        C  0.40175647  0.96628729  0.02153537     0.92400
O511        O  0.57175775  0.00233100  0.93239614    -0.81300
H512        H  0.44686107  0.00237684  0.94920029    -0.06600
C513        C  0.48619441  0.98139377  0.06140615     0.87300
O514        O  0.48949387  0.07582477  0.00304662    -0.75800
O515        O  0.53441238  0.97812906  0.98098646    -0.88500
O516        O  0.42242698  0.95416043  0.00989643    -0.81400
C517        C  0.48472524  0.91374703  0.95683794     0.92500
C518        C  0.56035406  0.99023958  0.91154825     0.92300
Mg519      Mg  0.44053172  0.01808156  0.03708625     1.58000
O520        O  0.43813900  0.02122923  0.08564384    -0.81300
O521        O  0.43953139  0.01505992  0.98902146    -0.75500
O522        O  0.49884006  0.93312546  0.94594497    -0.81400
O523        O  0.60388498  0.03768247  0.98130818    -0.83100
O524        O  0.50599785  0.09566934  0.06613074    -0.81400
C525        C  0.45246943  0.00038748  0.97105297     0.86800
O526        O  0.47283780  0.04775209  0.03488957    -0.88500
O527        O  0.47185884  0.98597958  0.04026572    -0.88600
O528        O  0.49963877  0.00050742  0.07368797    -0.75700
Mg529      Mg  0.50416489  0.98021024  0.94724322     1.58000
O530        O  0.47026785  0.91735998  0.97881832    -0.83100
H531        H  0.52254121  0.06609794  0.94678098    -0.06800
O532        O  0.53535457  0.04264903  0.03837121    -0.88300
H533        H  0.55935693  0.02464752  0.06759919    -0.06600
H534        H  0.44847676  0.07304271  0.01210805    -0.06800
C535        C  0.55426075  0.02648280  0.04560620     0.86800
C536        C  0.52298345  0.04498396  0.95443369     0.87300
C537        C  0.46939367  0.06600551  0.01692712     0.87400
H538        H  0.48794669  0.96038558  0.06921159    -0.06800
O539        O  0.51776219  0.94828096  0.01105905    -0.75800
Mg540      Mg  0.50258704  0.04791703  0.06838782     1.58000
H541        H  0.55868949  0.95101155  0.00161565    -0.06800
C542        C  0.60614935  0.06107006  0.99355659     0.92400
O543        O  0.53602545  0.10842490  0.03314213    -0.83000
C544        C  0.51996657  0.11411974  0.05335396     0.92400
O545        O  0.53737272  0.97752743  0.91367437    -0.83000
Mg546      Mg  0.47033846  0.95334902  0.00999209     1.58200
O547        O  0.58526110  0.07364177  0.00429730    -0.81400
O548        O  0.40463696  0.98792813  0.03653386    -0.83000
C549        C  0.50085242  0.26329638  0.12605852    -0.02800
O550        O  0.52246450  0.55264152  0.98833237    -0.88600
C551        C  0.51447785  0.50667345  0.91684701     0.87400
Mg552      Mg  0.54417698  0.53785791  0.02443707     1.58100
O553        O  0.45452819  0.50925017  0.95758015    -0.88400
O554        O  0.47975321  0.56573779  0.97791759    -0.75700
C555        C  0.50349507  0.40757564  0.03974499     0.92400
O556        O  0.56663230  0.51047630  0.96024178    -0.75500
O557        O  0.52393221  0.42394694  0.04112255    -0.83000
Mg558      Mg  0.54329356  0.55049321  0.94852508     1.58000
C559        C  0.40726386  0.44230701  0.97594170     0.92400
O560        O  0.52292823  0.59289281  0.93592809    -0.81300
H561        H  0.42513566  0.53128032  0.97739988    -0.06600
C562        C  0.50308932  0.44159139  0.96505991     0.87300
O563        O  0.50360193  0.52226918  0.04343292    -0.75800
O564        O  0.50887876  0.52661538  0.93236678    -0.88500
O565        O  0.41613204  0.45581210  0.95476607    -0.81400
C566        C  0.44152964  0.50773476  0.88250420     0.92500
C567        C  0.50119815  0.60125116  0.92277795     0.92300
Mg568      Mg  0.46196202  0.45707651  0.01138389     1.58000
O569        O  0.48092689  0.41438988  0.02706779    -0.81300
O570        O  0.43944185  0.49783301  0.99918460    -0.75500
O571        O  0.45453895  0.52845977  0.89257105    -0.81400
O572        O  0.58185179  0.57275145  0.96497064    -0.83100
O573        O  0.55198459  0.47821384  0.06479980    -0.81400
C574        C  0.43897949  0.51343300  0.97772822     0.86800
O575        O  0.49647289  0.48061357  0.02643174    -0.88500
O576        O  0.48148195  0.45438267  0.97121632    -0.88600
O577        O  0.52533947  0.44366041  0.97935656    -0.75700
Mg578      Mg  0.46844598  0.54521474  0.93601508     1.58000
O579        O  0.43661555  0.48633740  0.89725236    -0.83100
H580        H  0.50099578  0.57963119  0.01183473    -0.06800
O581        O  0.55096005  0.49970866  0.00182556    -0.88300
H582        H  0.58173050  0.47836425  0.98341304    -0.06600
H583        H  0.47162888  0.49789372  0.05513020    -0.06800
C584        C  0.56730322  0.49571733  0.98226147     0.86800
C585        C  0.50137651  0.56675145  0.99330179     0.87300
C586        C  0.49001596  0.49984102  0.04239692     0.87400
H587        H  0.50340243  0.42923847  0.94616091    -0.06800
O588        O  0.49972455  0.48483780  0.91612117    -0.75800
Mg589      Mg  0.53722911  0.46306590  0.02149924     1.58000
H590        H  0.53283746  0.50757891  0.90394095    -0.06800
C591        C  0.59528962  0.56941639  0.98784033     0.92400
O592        O  0.56533534  0.52230948  0.06497506    -0.83000
C593        C  0.56288115  0.49891106  0.07716930     0.92400
O594        O  0.48216949  0.58457972  0.91538011    -0.83000
Mg595      Mg  0.45861893  0.47053720  0.93636670     1.58200
O596        O  0.58530054  0.55632520  0.00866120    -0.81400
O597        O  0.42336189  0.43533586  0.99610285    -0.83000
O598        O  0.97177815  0.52680622  0.53340100    -0.88600
C599        C  0.05664632  0.51187567  0.53204453     0.87400
Mg600      Mg  0.94054116  0.49497004  0.53610809     1.58100
O601        O  0.02779941  0.52950566  0.46686402    -0.88400
O602        O  0.98318810  0.56039508  0.50470324    -0.75700
C603        C  0.98613096  0.39914061  0.44660158     0.92400
O604        O  0.00573066  0.47757417  0.56399206    -0.75500
O605        O  0.97252540  0.40031631  0.46929767    -0.83000
Mg606      Mg  0.00601171  0.52495928  0.56270445     1.58000
C607        C  0.04731815  0.48236845  0.39694321     0.92400
O608        O  0.00861840  0.57213619  0.56786437    -0.81300
H609        H  0.00663062  0.55573476  0.44202226    -0.06600
C610        C  0.03807981  0.44771102  0.48448929     0.87300
O611        O  0.93564503  0.49525603  0.48827328    -0.75800
O612        O  0.03485125  0.52536259  0.52877978    -0.88500
O613        O  0.05874331  0.49792267  0.41527692    -0.81400
C614        C  0.09740916  0.55423365  0.47770697     0.92500
C615        C  0.02058688  0.59320946  0.55753713     0.92300
Mg616      Mg  0.99785850  0.46750452  0.43893879     1.58000
O617        O  0.99730073  0.42048857  0.43610690    -0.81300
O618        O  0.99699498  0.51519954  0.43636613    -0.75500
O619        O  0.07857741  0.56273981  0.49448606    -0.81400
O620        O  0.97623657  0.52404394  0.59853334    -0.83100
O621        O  0.92478642  0.43267860  0.50481040    -0.81400
C622        C  0.01066069  0.53443805  0.44808062     0.86800
O623        O  0.96896579  0.46821369  0.47232693    -0.88500
O624        O  0.03148015  0.46722839  0.46879765    -0.88600
O625        O  0.02022596  0.43457422  0.49878215    -0.75700
Mg626      Mg  0.03080597  0.55935580  0.49980946     1.58000
O627        O  0.09356382  0.53415631  0.46078937    -0.83100
H628        H  0.94373741  0.55356491  0.51763067    -0.06800
O629        O  0.97362590  0.46464199  0.53424770    -0.88300
H630        H  0.99402194  0.43762633  0.55879053    -0.06600
H631        H  0.94044405  0.48581284  0.44718301    -0.06800
C632        C  0.99074737  0.45906938  0.55284641     0.86800
C633        C  0.96535237  0.54723575  0.51892363     0.87300
C634        C  0.94797688  0.48282301  0.46834045     0.87400
H635        H  0.05982947  0.44216821  0.48673658    -0.06800
O636        O  0.06889354  0.50029821  0.51156288    -0.75800
Mg637      Mg  0.97235398  0.43474806  0.50198929     1.58000
H638        H  0.06516667  0.50938730  0.55289049    -0.06800
C639        C  0.95455084  0.51020790  0.60388110     0.92400
O640        O  0.90548560  0.46189681  0.53542009    -0.83000
C641        C  0.90347591  0.44198660  0.51778792     0.92400
O642        O  0.03271969  0.59220536  0.53396169    -0.83000
Mg643      Mg  0.06131770  0.49984247  0.46394458     1.58200
O644        O  0.94167090  0.49621221  0.58514203    -0.81400
O645        O  0.02719129  0.46670364  0.40284258    -0.83000
O646        O  0.03163326  0.46507833  0.02339155    -0.88600
C647        C  0.04127303  0.54715718  0.00994815     0.87400
Mg648      Mg  0.03330211  0.43575158  0.99038904     1.58100
O649        O  0.97259800  0.52895698  0.02402513    -0.88400
O650        O  0.00182520  0.47891114  0.05528423    -0.75700
C651        C  0.94960004  0.48780563  0.89274981     0.92400
O652        O  0.06819603  0.49603339  0.97755741    -0.75500
O653        O  0.97058514  0.47202141  0.89677294    -0.83000
Mg654      Mg  0.06464647  0.49416304  0.02558007     1.58000
C655        C  0.90665252  0.55833494  0.98038740     0.92400
O656        O  0.06405582  0.49176753  0.07364594    -0.81300
H657        H  0.94502939  0.51220661  0.05000119    -0.06600
C658        C  0.99044397  0.53724449  0.94185972     0.87300
O659        O  0.98527773  0.43515983  0.98898778    -0.75800
O660        O  0.03477869  0.52719752  0.02474364    -0.88500
O661        O  0.92838264  0.56740033  0.99258488    -0.81400
C662        C  0.99168870  0.59597484  0.05113718     0.92500
C663        C  0.05326205  0.50437216  0.09448610     0.92300
Mg664      Mg  0.94129725  0.50309723  0.96136095     1.58000
O665        O  0.93912459  0.50283513  0.91224088    -0.81300
O666        O  0.93878947  0.50253179  0.00916613    -0.75500
O667        O  0.00279575  0.57404983  0.06145803    -0.81400
O668        O  0.09821271  0.46072016  0.02456192    -0.83100
O669        O  0.00360413  0.42285876  0.92616066    -0.81400
C670        C  0.95172895  0.51494481  0.02862866     0.86800
O671        O  0.97197606  0.47000715  0.96220505    -0.88500
O672        O  0.97494958  0.53230924  0.96177262    -0.88600
O673        O  0.00344897  0.51805883  0.92898933    -0.75700
Mg674      Mg  0.00303282  0.52657773  0.05610057     1.58000
O675        O  0.97819587  0.59569174  0.02814179    -0.83100
H676        H  0.01083544  0.43844440  0.04730556    -0.06800
O677        O  0.03463915  0.46978390  0.96162534    -0.88300
H678        H  0.06188122  0.48803653  0.93629013    -0.06600
H679        H  0.94494395  0.44367554  0.97907945    -0.06800
C680        C  0.05521461  0.48441935  0.95753367     0.86800
C681        C  0.01499999  0.45987451  0.04231222     0.87300
C682        C  0.96645587  0.44938356  0.97653254     0.87400
H683        H  0.99379966  0.55857970  0.93589323    -0.06800
O684        O  0.02334240  0.56112501  0.99609612    -0.75800
Mg685      Mg  0.00311266  0.47046566  0.93023668     1.58000
H686        H  0.06302134  0.55212839  0.00781814    -0.06800
C687        C  0.10189261  0.44233809  0.00574892     0.92400
O688        O  0.03267744  0.40292302  0.95667682    -0.83000
C689        C  0.01658216  0.40156840  0.93555009     0.92400
O690        O  0.03399161  0.52245586  0.09146422    -0.83000
Mg691      Mg  0.97573474  0.56237368  0.99442577     1.58200
O692        O  0.08163287  0.43335865  0.99103902    -0.81400
O693        O  0.90742869  0.53720676  0.96420182    -0.83000
C694        C  0.11809965  0.50327311  0.24668261    -0.02800
O695        O  0.52908759  0.51822184  0.46073061    -0.88600
C696        C  0.44526117  0.50958468  0.45476723     0.87400
Mg697      Mg  0.55799021  0.48402217  0.46018009     1.58100
O698        O  0.46953458  0.52319974  0.52292875    -0.88400
O699        O  0.51840922  0.55219179  0.48941346    -0.75700
C700        C  0.50199976  0.38775205  0.54377983     0.92400
O701        O  0.49578569  0.47266245  0.42637093    -0.75500
O702        O  0.51865888  0.38815321  0.52305613    -0.83000
Mg703      Mg  0.49833976  0.52031351  0.42777283     1.58000
C704        C  0.44127227  0.47619112  0.59030396     0.92400
O705        O  0.49902016  0.56863376  0.42444391    -0.81300
H706        H  0.49127373  0.54652056  0.54965473    -0.06600
C707        C  0.45644868  0.44155832  0.50370248     0.87300
O708        O  0.55963598  0.48252804  0.50804639    -0.75800
O709        O  0.46667433  0.52280656  0.45955097    -0.88500
O710        O  0.43186769  0.49276322  0.57145392    -0.81400
C711        C  0.40186835  0.55387932  0.50842464     0.92500
C712        C  0.48797249  0.59040197  0.43533342     0.92300
Mg713      Mg  0.49386672  0.45751414  0.55181502     1.58000
O714        O  0.49094881  0.41005564  0.55317522    -0.81300
O715        O  0.49742243  0.50508017  0.55478860    -0.75500
O716        O  0.42281869  0.56289797  0.49487644    -0.81400
O717        O  0.53133693  0.51618744  0.39297426    -0.83100
O718        O  0.57052129  0.41663735  0.48807313    -0.81400
C719        C  0.48593046  0.52586083  0.54280120     0.86800
O720        O  0.52565843  0.45566057  0.52113232    -0.88500
O721        O  0.46314282  0.46085397  0.51941593    -0.88600
O722        O  0.47444489  0.42675941  0.49088350    -0.75700
Mg723      Mg  0.47075045  0.55491957  0.49111215     1.58000
O724        O  0.40303747  0.53133849  0.52238166    -0.83100
H725        H  0.55794407  0.54220342  0.47834648    -0.06800
O726        O  0.52385410  0.45527144  0.45851673    -0.88300
H727        H  0.50258835  0.43139782  0.43193476    -0.06600
H728        H  0.55298180  0.47136260  0.54833675    -0.06800
C729        C  0.50762362  0.45220660  0.43857079     0.86800
C730        C  0.53607498  0.53782174  0.47582948     0.87300
C731        C  0.54649697  0.46942806  0.52673148     0.87400
H732        H  0.43462032  0.43756676  0.50025582    -0.06800
O733        O  0.43193458  0.49755939  0.47411484    -0.75800
Mg734      Mg  0.52242667  0.42339662  0.49012304     1.58000
H735        H  0.43815193  0.50746801  0.43337678    -0.06800
C736        C  0.55275600  0.50035225  0.39112230     0.92400
O737        O  0.58995576  0.44915850  0.46144311    -0.83000
C738        C  0.59159635  0.42682477  0.47564281     0.92400
O739        O  0.47418308  0.58938164  0.45807354    -0.83000
Mg740      Mg  0.43451789  0.49554222  0.52218514     1.58200
O741        O  0.56201872  0.48665041  0.41214075    -0.81400
O742        O  0.46144972  0.45962705  0.58550506    -0.83000
C743        C  0.99747957  0.74401297  0.62627635    -0.02800
O744        O  0.28074306  0.77182849  0.78666153    -0.88600
C745        C  0.25677058  0.69357982  0.80089823     0.87400
Mg746      Mg  0.25169757  0.80533620  0.78503092     1.58100
O747        O  0.27401728  0.70846949  0.73184938    -0.88400
O748        O  0.31243316  0.75325555  0.75952855    -0.75700
C749        C  0.14632480  0.75957120  0.70439254     0.92400
O750        O  0.23128640  0.75047214  0.82498518    -0.75500
O751        O  0.14904638  0.77575075  0.72547649    -0.83000
Mg752      Mg  0.27894218  0.74511867  0.82247143     1.58000
C753        C  0.22859196  0.68283210  0.66422876     0.92400
O754        O  0.32722641  0.73995728  0.82348667    -0.81300
H755        H  0.30147812  0.72257131  0.70416929    -0.06600
C756        C  0.19145827  0.70951669  0.74885444     0.87300
O757        O  0.24943743  0.80306314  0.73718982    -0.75800
O758        O  0.27430817  0.71108375  0.79445434    -0.88500
O759        O  0.24065823  0.67357420  0.68626320    -0.81400
C760        C  0.29158287  0.63878546  0.75417368     0.92500
C761        C  0.34641883  0.72412781  0.81373386     0.92300
Mg762      Mg  0.21405767  0.73940690  0.69773065     1.58000
O763        O  0.16664064  0.74504779  0.69504706    -0.81300
O764        O  0.26169208  0.73491748  0.69641033    -0.75500
O765        O  0.30359075  0.65873819  0.76671390    -0.81400
O766        O  0.28169958  0.78061303  0.85362664    -0.83100
O767        O  0.18654358  0.82628920  0.75656239    -0.81400
C768        C  0.27996848  0.72165186  0.71052820     0.86800
O769        O  0.21699530  0.77317400  0.72642871    -0.88500
O770        O  0.21147410  0.71190960  0.73288031    -0.88600
O771        O  0.18037391  0.73031053  0.76103637    -0.75700
Mg772      Mg  0.30587898  0.70630679  0.76320890     1.58000
O773        O  0.27121070  0.64283445  0.73755369    -0.83100
H774        H  0.30899500  0.79464295  0.76687231    -0.06800
O775        O  0.21793166  0.77650846  0.78946339    -0.88300
H776        H  0.19136284  0.76309354  0.81836965    -0.06600
H777        H  0.23675116  0.79525301  0.69746172    -0.06800
C778        C  0.21264264  0.76370055  0.81123594     0.86800
C779        C  0.30114260  0.77417020  0.77123392     0.87300
C780        C  0.23402050  0.79089962  0.71946270     0.87400
H781        H  0.18385410  0.68899264  0.75341942    -0.06800
O782        O  0.24215594  0.68103997  0.78263689    -0.75800
Mg783      Mg  0.18528294  0.77755654  0.75805837     1.58000
H784        H  0.25313418  0.68946612  0.82280628    -0.06800
C785        C  0.26822308  0.80351338  0.85417418     0.92400
O786        O  0.22260486  0.84169083  0.78164086    -0.83000
C787        C  0.20043306  0.84607644  0.76767140     0.92400
O788        O  0.34132486  0.70619253  0.79485697    -0.83000
Mg789      Mg  0.24129184  0.67896796  0.73441606     1.58200
O790        O  0.25531270  0.81285134  0.83267604    -0.81400
O791        O  0.21282571  0.70429891  0.66510308    -0.83000
C792        C  0.49494471  0.76316412  0.88294971    -0.02800
C793        C  0.46510845  0.76220078  0.86977685    -0.05500
C794        C  0.44192000  0.77277624  0.88497229    -0.05500
C795        C  0.41468796  0.76824927  0.87640513    -0.23600
C796        C  0.40919276  0.75114619  0.85359746     0.18600
C797        C  0.43152549  0.73880588  0.83885944     0.15800
C798        C  0.45925378  0.74485033  0.84655217    -0.18700
C799        C  0.42559800  0.72006097  0.81719157    -0.20500
C800        C  0.39795478  0.71441460  0.80975840    -0.13000
C801        C  0.37561640  0.72760118  0.82363281     0.03600
C802        C  0.38157456  0.74573467  0.84582378    -0.25200
H803        H  0.44441520  0.78361158  0.90461134     0.08700
H804        H  0.39781293  0.77712902  0.88855571     0.12300
H805        H  0.47617368  0.73467967  0.83558180     0.12200
H806        H  0.44231354  0.70988221  0.80587860     0.12000
H807        H  0.39410487  0.70025275  0.79260314     0.12500
H808        H  0.36470241  0.75582407  0.85701977     0.14500
C809        C  0.02198951  0.74605524  0.64766266    -0.05500
C810        C  0.01936222  0.74453710  0.67705360    -0.05500
C811        C  0.04285373  0.74735812  0.69466592    -0.23600
C812        C  0.06949997  0.75161493  0.68336886     0.18600
C813        C  0.07230485  0.75232391  0.65400157     0.15800
C814        C  0.04900680  0.74929843  0.63670293    -0.18700
C815        C  0.09843639  0.75615315  0.64203589    -0.20500
C816        C  0.12187226  0.75900755  0.65889821    -0.13000
C817        C  0.11988479  0.75846786  0.68818073     0.03600
C818        C  0.09346245  0.75494340  0.70052836    -0.25200
H819        H  0.99933508  0.74126642  0.68657845     0.08700
H820        H  0.04014811  0.74631034  0.71712694     0.12300
H821        H  0.05170402  0.75023625  0.61420356     0.12200
H822        H  0.10082303  0.75675088  0.61950398     0.12000
H823        H  0.14185449  0.76162452  0.64892314     0.12500
H824        H  0.09172012  0.75405811  0.72310669     0.14500
C825        C  0.06300873  0.49736352  0.12301264    -0.05500
C826        C  0.07888280  0.47309698  0.12770921    -0.05500
C827        C  0.08838037  0.46642912  0.15454255    -0.23600
C828        C  0.08294240  0.48439268  0.17696875     0.18600
C829        C  0.06639121  0.50842642  0.17264779     0.15800
C830        C  0.05604159  0.51448203  0.14583217    -0.18700
C831        C  0.06158906  0.52662805  0.19497995    -0.20500
C832        C  0.07619233  0.52307231  0.22007133    -0.13000
C833        C  0.09573037  0.50110886  0.22333569     0.03600
C834        C  0.09562209  0.47982172  0.20303711    -0.25200
H835        H  0.08405965  0.45926381  0.11058879     0.08700
H836        H  0.10106547  0.44790102  0.15748790     0.12300
H837        H  0.04359581  0.53312632  0.14255184     0.12200
H838        H  0.04831885  0.54478907  0.19234183     0.12000
H839        H  0.07437138  0.53910755  0.23585690     0.12500
H840        H  0.10721364  0.46073646  0.20614583     0.14500
C841        C  0.02038363  0.61931405  0.57382837    -0.05500
C842        C  0.01883250  0.61823107  0.60316488    -0.05500
C843        C  0.01663140  0.64255153  0.61889301    -0.23600
C844        C  0.01522941  0.66839676  0.60551337     0.18600
C845        C  0.01749392  0.66987932  0.57613683     0.15800
C846        C  0.02057862  0.64531511  0.56043148    -0.18700
C847        C  0.01591596  0.69585712  0.56300736    -0.20500
C848        C  0.01039259  0.71992491  0.57859606    -0.13000
C849        C  0.00576348  0.71856885  0.60776960     0.03600
C850        C  0.01036777  0.69262010  0.62102949    -0.25200
H851        H  0.01906098  0.59846475  0.61396679     0.08700
H852        H  0.01508388  0.64107998  0.64145866     0.12300
H853        H  0.02180831  0.64635710  0.53781139     0.12200
H854        H  0.01845352  0.69753416  0.54055673     0.12000
H855        H  0.00992199  0.73934082  0.56740687     0.12500
H856        H  0.00825637  0.69110388  0.64356007     0.14500
C857        C  0.05741309  0.48240092  0.36784327    -0.05500
C858        C  0.05470773  0.45862316  0.35095519    -0.05500
C859        C  0.06415145  0.45857274  0.32332160    -0.23600
C860        C  0.07614520  0.48242651  0.31202750     0.18600
C861        C  0.07813029  0.50658878  0.32867493     0.15800
C862        C  0.06903723  0.50637281  0.35648665    -0.18700
C863        C  0.08907360  0.53069170  0.31720562    -0.20500
C864        C  0.10005295  0.53033822  0.29032594    -0.13000
C865        C  0.10162531  0.50546341  0.27456079     0.03600
C866        C  0.08699409  0.48232977  0.28475520    -0.25200
H867        H  0.04565522  0.43990184  0.35928969     0.08700
H868        H  0.06234884  0.43983212  0.31092328     0.12300
H869        H  0.07072024  0.52494097  0.36919939     0.12200
H870        H  0.08949393  0.54980693  0.32916693     0.12000
H871        H  0.10755889  0.54978608  0.28228943     0.12500
H872        H  0.08605935  0.46357442  0.27224571     0.14500
C873        C  0.49967465  0.73546295  0.89981980    -0.05500
C874        C  0.52645667  0.72745893  0.90968720    -0.05500
C875        C  0.53240150  0.69983384  0.91741173    -0.23600
C876        C  0.51165479  0.67959471  0.91584949     0.18600
C877        C  0.48426899  0.68800754  0.90908608     0.15800
C878        C  0.47830617  0.71571434  0.90274126    -0.18700
C879        C  0.46318630  0.66837802  0.90715756    -0.20500
C880        C  0.46925077  0.64038516  0.91091100    -0.13000
C881        C  0.49642709  0.63127752  0.91740790     0.03600
C882        C  0.51761267  0.65114852  0.92039628    -0.25200
H883        H  0.54337347  0.74207966  0.90906315     0.08700
H884        H  0.55350496  0.69406865  0.92319350     0.12300
H885        H  0.45685224  0.72091552  0.89826429     0.12200
H886        H  0.44203173  0.67459072  0.90198505     0.12000
H887        H  0.45234611  0.62583450  0.90904892     0.12500
H888        H  0.53858612  0.64450226  0.92574031     0.14500
C889        C  0.50689353  0.38056923  0.05448181    -0.05500
C890        C  0.52967309  0.37765895  0.07293363    -0.05500
C891        C  0.53327785  0.35403637  0.08902253    -0.23600
C892        C  0.51442725  0.33235596  0.08696323     0.18600
C893        C  0.49215095  0.33384176  0.06772144     0.15800
C894        C  0.48825901  0.35824274  0.05153497    -0.18700
C895        C  0.47393520  0.31125984  0.06596232    -0.20500
C896        C  0.47748506  0.28805424  0.08365095    -0.13000
C897        C  0.49929194  0.28679735  0.10362070     0.03600
C898        C  0.51733556  0.30973835  0.10488713    -0.25200
H899        H  0.54457174  0.39412487  0.07574840     0.08700
H900        H  0.55068122  0.35296797  0.10352506     0.12300
H901        H  0.47079425  0.35999290  0.03719589     0.12200
H902        H  0.45663456  0.31176513  0.05135207     0.12000
H903        H  0.46264118  0.27137325  0.08239216     0.12500
H904        H  0.53324591  0.31132925  0.12079751     0.14500
C905        C  0.49653167  0.78920722  0.90261433    -0.05500
C906        C  0.50512315  0.78835238  0.93103436    -0.05500
C907        C  0.50398279  0.81224312  0.94799782    -0.23600
C908        C  0.49413276  0.83765228  0.93719239     0.18600
C909        C  0.48522468  0.83877962  0.90908413     0.15800
C910        C  0.48599531  0.81493271  0.89259034    -0.18700
C911        C  0.47541607  0.86377922  0.89761029    -0.20500
C912        C  0.47505413  0.88782139  0.91367131    -0.13000
C913        C  0.48375402  0.88721543  0.94167892     0.03600
C914        C  0.49295329  0.86198650  0.95368396    -0.25200
H915        H  0.51231160  0.76937035  0.94073392     0.08700
H916        H  0.51071444  0.81078517  0.96962853     0.12300
H917        H  0.47667352  0.81614582  0.87192662     0.12200
H918        H  0.46849725  0.86486221  0.87600690     0.12000
H919        H  0.46800404  0.90709428  0.90416664     0.12500
H920        H  0.49993415  0.86155099  0.97528725     0.14500
C921        C  0.51718554  0.14323648  0.06171654    -0.05500
C922        C  0.51737245  0.16438805  0.04145665    -0.05500
C923        C  0.51403658  0.19215551  0.04933122    -0.23600
C924        C  0.51105686  0.19911430  0.07763473     0.18600
C925        C  0.51177145  0.17776239  0.09800781     0.15800
C926        C  0.51431337  0.15002244  0.08991490    -0.18700
C927        C  0.51022726  0.18436427  0.12626918    -0.20500
C928        C  0.50730341  0.21178795  0.13438561    -0.13000
C929        C  0.50471039  0.23354899  0.11449642     0.03600
C930        C  0.50745640  0.22692474  0.08593411    -0.25200
H931        H  0.51955266  0.15935539  0.01947251     0.08700
H932        H  0.51378263  0.20810575  0.03335503     0.12300
H933        H  0.51457415  0.13371747  0.10556832     0.12200
H934        H  0.51126941  0.16832885  0.14215341     0.12000
H935        H  0.50604848  0.21616617  0.15658851     0.12500
H936        H  0.50721336  0.24304308  0.07020988     0.14500
C937        C  0.28133532  0.10948168  0.50986053    -0.05500
C938        C  0.30063060  0.11266527  0.53220159    -0.05500
C939        C  0.32692303  0.10053064  0.53158529    -0.23600
C940        C  0.33563547  0.08543313  0.50833615     0.18600
C941        C  0.31724261  0.08127375  0.48571320     0.15800
C942        C  0.29002958  0.09280791  0.48681757    -0.18700
C943        C  0.32691037  0.06645868  0.46218202    -0.20500
C944        C  0.35455645  0.05640442  0.46114984    -0.13000
C945        C  0.37293651  0.06086596  0.48371350     0.03600
C946        C  0.36293022  0.07519987  0.50730398    -0.25200
H947        H  0.29661691  0.12551973  0.55018769     0.08700
H948        H  0.34096082  0.10397919  0.54905212     0.12300
H949        H  0.27610293  0.09015027  0.46913421     0.12200
H950        H  0.31324911  0.06298889  0.44445219     0.12000
H951        H  0.36154963  0.04530066  0.44273030     0.12500
H952        H  0.37657430  0.07889796  0.52502670     0.14500
C953        C  0.00538511  0.87055246  0.57121359    -0.05500
C954        C  0.02249714  0.86805252  0.59506090    -0.05500
C955        C  0.02339808  0.84363479  0.61060378    -0.23600
C956        C  0.00752150  0.82081199  0.60250096     0.18600
C957        C  0.98982428  0.82280259  0.57895921     0.15800
C958        C  0.98861001  0.84785479  0.56346518    -0.18700
C959        C  0.97366898  0.79973899  0.57166583    -0.20500
C960        C  0.97584112  0.77484990  0.58698537    -0.13000
C961        C  0.99493285  0.77188225  0.60944737     0.03600
C962        C  0.00941669  0.79604187  0.61773250    -0.25200
H963        H  0.03520397  0.88520169  0.60193643     0.08700
H964        H  0.03689050  0.84249688  0.62882360     0.12300
H965        H  0.97509442  0.84951985  0.54530985     0.12200
H966        H  0.95941081  0.80088913  0.55406607     0.12000
H967        H  0.96295265  0.75754826  0.58093056     0.12500
H968        H  0.02215213  0.79623447  0.63641898     0.14500
C969        C  0.12597058  0.07708622  0.50736676    -0.05500
C970        C  0.12555525  0.10617693  0.50629588    -0.05500
C971        C  0.15019663  0.12111319  0.50811557    -0.23600
C972        C  0.17589863  0.10719378  0.51004664     0.18600
C973        C  0.17678922  0.07791661  0.51088142     0.15800
C974        C  0.15167683  0.06294206  0.51021575    -0.18700
C975        C  0.20278544  0.06430066  0.51175446    -0.20500
C976        C  0.22756676  0.07945319  0.51080969    -0.13000
C977        C  0.22702598  0.10876443  0.50927295     0.03600
C978        C  0.20070004  0.12221424  0.51031878    -0.25200
H979        H  0.10599603  0.11739256  0.50413996     0.08700
H980        H  0.14918480  0.14358084  0.50730125     0.12300
H981        H  0.15215050  0.04044964  0.51078920     0.12200
H982        H  0.20397933  0.04184918  0.51269399     0.12000
H983        H  0.24697002  0.06795407  0.51148303     0.12500
H984        H  0.19965094  0.14471271  0.50992675     0.14500
C985        C  0.43645541  0.03196084  0.13447113    -0.05500
C986        C  0.44160830  0.05127617  0.15597289    -0.05500
C987        C  0.43082519  0.04735514  0.18297391    -0.23600
C988        C  0.41480942  0.02392446  0.18911616     0.18600
C989        C  0.41003207  0.00428566  0.16775919     0.15800
C990        C  0.42073521  0.00837512  0.14077546    -0.18700
C991        C  0.39397135  0.98108726  0.17338899    -0.20500
C992        C  0.38107196  0.97813919  0.19920619    -0.13000
C993        C  0.38434584  0.99794502  0.22099635     0.03600
C994        C  0.40258501  0.02030156  0.21574864    -0.25200
H995        H  0.45380957  0.06955564  0.15185778     0.08700
H996        H  0.43477680  0.06279901  0.19894988     0.12300
H997        H  0.41684793  0.99303802  0.12464767     0.12200
H998        H  0.39018684  0.96574292  0.15725000     0.12000
H999        H  0.36720334  0.96082006  0.20076164     0.12500
H1000       H  0.40554839  0.03598155  0.23171951     0.14500
C1001       C  0.37888411  0.99612326  0.27600278    -0.05500
C1002       C  0.36117095  0.99666459  0.29959934    -0.05500
C1003       C  0.37156088  0.99535485  0.32666580    -0.23600
C1004       C  0.40002279  0.99226935  0.33129104     0.18600
C1005       C  0.41838901  0.99012034  0.30832375     0.15800
C1006       C  0.40778307  0.99235233  0.28065796    -0.18700
C1007       C  0.44691806  0.98574204  0.31370820    -0.20500
C1008       C  0.45689687  0.98390791  0.34140664    -0.13000
C1009       C  0.43857839  0.98707539  0.36404889     0.03600
C1010       C  0.41022767  0.99122847  0.35874793    -0.25200
H1011       H  0.33888262  0.99904133  0.29688971     0.08700
H1012       H  0.35720686  0.99667049  0.34404091     0.12300
H1013       H  0.42186693  0.99086160  0.26312838     0.12200
H1014       H  0.46147250  0.98384357  0.29657208     0.12000
H1015       H  0.47896098  0.98090832  0.34515837     0.12500
H1016       H  0.39601229  0.99352395  0.37617891     0.14500
C1017       C  0.23238864  0.40320410  0.00613488    -0.05500
C1018       C  0.22764085  0.42252476  0.02797283    -0.05500
C1019       C  0.20172556  0.43549059  0.03124259    -0.23600
C1020       C  0.17996036  0.42960825  0.01268686     0.18600
C1021       C  0.18540081  0.41332222  0.98872379     0.15800
C1022       C  0.21214667  0.40192234  0.98459225    -0.18700
C1023       C  0.16354915  0.40722653  0.97022867    -0.20500
C1024       C  0.13639063  0.41618634  0.97606432    -0.13000
C1025       C  0.13060527  0.43198886  0.00017100     0.03600
C1026       C  0.15276298  0.43910771  0.01809077    -0.25200
H1027       H  0.24307509  0.42528257  0.04429077     0.08700
H1028       H  0.19820197  0.44857305  0.04936680     0.12300
H1029       H  0.21606032  0.39051477  0.96555329     0.12200
H1030       H  0.16728739  0.39474836  0.95171744     0.12000
H1031       H  0.11990581  0.41082788  0.96158041     0.12500
H1032       H  0.14879306  0.45153456  0.03659722     0.14500
C1033       C  0.37723427  0.43549922  0.97813808    -0.05500
C1034       C  0.35920000  0.43758712  0.95493135    -0.05500
C1035       C  0.33098497  0.43095376  0.95744536    -0.23600
C1036       C  0.32027249  0.42223060  0.98324250     0.18600
C1037       C  0.33788904  0.42146170  0.00692157     0.15800
C1038       C  0.36611133  0.42803556  0.00426293    -0.18700
C1039       C  0.32702885  0.41379157  0.03286498    -0.20500
C1040       C  0.29995049  0.40382689  0.03473041    -0.13000
C1041       C  0.28354712  0.39992855  0.01043662     0.03600
C1042       C  0.29277639  0.41274143  0.98549289    -0.25200
H1043       H  0.36700291  0.44387993  0.93471998     0.08700
H1044       H  0.31772427  0.43195698  0.93905971     0.12300
H1045       H  0.37946086  0.42712671  0.02260603     0.12200
H1046       H  0.33974824  0.41469643  0.05163018     0.12000
H1047       H  0.29242771  0.39861515  0.05527785     0.12500
H1048       H  0.27964032  0.41227759  0.96698748     0.14500
C1049       C  0.19088636  0.38809544  0.26498150    -0.05500
C1050       C  0.18072904  0.39740670  0.29097982    -0.05500
C1051       C  0.16685895  0.42282374  0.29324800    -0.23600
C1052       C  0.16273097  0.43937564  0.26953182     0.18600
C1053       C  0.17473352  0.43139353  0.24381421     0.15800
C1054       C  0.18891561  0.40580661  0.24166275    -0.18700
C1055       C  0.17168888  0.44888679  0.22061761    -0.20500
C1056       C  0.15493023  0.47271645  0.22234434    -0.13000
C1057       C  0.13936420  0.47871933  0.24671182     0.03600
C1058       C  0.14584272  0.46317777  0.27099171    -0.25200
H1059       H  0.18258488  0.38456355  0.30950509     0.08700
H1060       H  0.15830734  0.42893824  0.31330075     0.12300
H1061       H  0.19712778  0.39915844  0.22163434     0.12200
H1062       H  0.18165609  0.44380624  0.20095643     0.12000
H1063       H  0.15268350  0.48566312  0.20393170     0.12500
H1064       H  0.13774758  0.46912134  0.29119490     0.14500
C1065       C  0.25489602  0.14347934  0.48005522    -0.05500
C1066       C  0.27907418  0.15850544  0.47322599    -0.05500
C1067       C  0.28254617  0.17049388  0.44674123    -0.23600
C1068       C  0.26168962  0.16846389  0.42624636     0.18600
C1069       C  0.23700563  0.15443616  0.43272277     0.15800
C1070       C  0.23418273  0.14143777  0.45882223    -0.18700
C1071       C  0.21548106  0.15323114  0.41279639    -0.20500
C1072       C  0.21847042  0.16565353  0.38660177    -0.13000
C1073       C  0.24336920  0.17866407  0.37942364     0.03600
C1074       C  0.26503012  0.17999829  0.39934950    -0.25200
H1075       H  0.29588997  0.16016318  0.48827865     0.08700
H1076       H  0.30167057  0.18125039  0.44226687     0.12300
H1077       H  0.21587972  0.12910990  0.46154237     0.12200
H1078       H  0.19623208  0.14278987  0.41752487     0.12000
H1079       H  0.20149893  0.16458637  0.37164790     0.12500
H1080       H  0.28414292  0.19045011  0.39409282     0.14500
C1081       C  0.37712932  0.24872982  0.18391844    -0.05500
C1082       C  0.38568728  0.22373531  0.17149968    -0.05500
C1083       C  0.41094518  0.22204317  0.15749491    -0.23600
C1084       C  0.42846923  0.24507797  0.15647280     0.18600
C1085       C  0.42079571  0.27000476  0.16986029     0.15800
C1086       C  0.39478519  0.27191845  0.18306566    -0.18700
C1087       C  0.43916405  0.29247078  0.16944770    -0.20500
C1088       C  0.46509412  0.28995443  0.15625008    -0.13000
C1089       C  0.47304436  0.26516998  0.14252231     0.03600
C1090       C  0.45344651  0.24337005  0.14193760    -0.25200
H1091       H  0.37241868  0.20572834  0.17185423     0.08700
H1092       H  0.41681798  0.20265395  0.14750280     0.12300
H1093       H  0.38837730  0.29126267  0.19282924     0.12200
H1094       H  0.43357697  0.31190531  0.17948257     0.12000
H1095       H  0.47888187  0.30756044  0.15634362     0.12500
H1096       H  0.45676673  0.22479289  0.12972662     0.14500
C1097       C  0.34924544  0.02754386  0.24507667    -0.05500
C1098       C  0.33262155  0.03491359  0.22166647    -0.05500
C1099       C  0.32112108  0.06178782  0.21884843    -0.23600
C1100       C  0.32640014  0.08230253  0.23907953     0.18600
C1101       C  0.34350398  0.07551185  0.26216110     0.15800
C1102       C  0.35515627  0.04897488  0.26454948    -0.18700
C1103       C  0.34920607  0.09546612  0.28266558    -0.20500
C1104       C  0.33775049  0.12198954  0.28061792    -0.13000
C1105       C  0.32099208  0.12937701  0.25770358     0.03600
C1106       C  0.31545840  0.10956657  0.23667314    -0.25200
H1107       H  0.32893902  0.01990455  0.20522388     0.08700
H1108       H  0.30838641  0.06659185  0.20067918     0.12300
H1109       H  0.36984441  0.04590093  0.28146544     0.12200
H1110       H  0.36239437  0.09049278  0.30048011     0.12000
H1111       H  0.34236643  0.13701764  0.29682641     0.12500
H1112       H  0.30245258  0.11522584  0.21892987     0.14500
C1113       C  0.25195170  0.36518381  0.03730688    -0.05500
C1114       C  0.22540630  0.36402008  0.05003099    -0.05500
C1115       C  0.22231106  0.35441853  0.07732973    -0.23600
C1116       C  0.24550623  0.34519351  0.09251702     0.18600
C1117       C  0.27137003  0.34233787  0.07884273     0.15800
C1118       C  0.27388303  0.35051449  0.05068370    -0.18700
C1119       C  0.29460541  0.33290813  0.09404922    -0.20500
C1120       C  0.29238193  0.32725544  0.12264850    -0.13000
C1121       C  0.26682721  0.33066108  0.13661300     0.03600
C1122       C  0.24331620  0.33921844  0.12118961    -0.25200
H1123       H  0.20688730  0.37153277  0.03941562     0.08700
H1124       H  0.20196400  0.35540762  0.08694335     0.12300
H1125       H  0.29380680  0.34842207  0.04035010     0.12200
H1126       H  0.31465041  0.33057979  0.08401364     0.12000
H1127       H  0.31079723  0.32029581  0.13389179     0.12500
H1128       H  0.22335674  0.34130976  0.13146956     0.14500
C1129       C  0.00104530  0.27419052  0.39462878    -0.05500
C1130       C  0.00260304  0.27251680  0.42407987    -0.05500
C1131       C  0.99931813  0.29650169  0.44060629    -0.23600
C1132       C  0.99491577  0.32262175  0.42806508     0.18600
C1133       C  0.99402550  0.32447443  0.39861710     0.15800
C1134       C  0.99684630  0.30061047  0.38241236    -0.18700
C1135       C  0.99056354  0.35023819  0.38553222    -0.20500
C1136       C  0.98803931  0.37422996  0.40147482    -0.13000
C1137       C  0.98836897  0.37292721  0.43080524     0.03600
C1138       C  0.99168554  0.34699825  0.44416893    -0.25200
H1139       H  0.00665847  0.25297477  0.43448262     0.08700
H1140       H  0.00049794  0.29466025  0.46317450     0.12300
H1141       H  0.99586093  0.30244723  0.35979793     0.12200
H1142       H  0.99000272  0.35187196  0.36291302     0.12000
H1143       H  0.98552543  0.39394431  0.39079541     0.12500
H1144       H  0.99237891  0.34593183  0.46681744     0.14500
C1145       C  0.01131903  0.22089891  0.38878113    -0.05500
C1146       C  0.03592658  0.20515274  0.38336689    -0.05500
C1147       C  0.04046820  0.17899865  0.39491821    -0.23600
C1148       C  0.01984917  0.16640263  0.41057831     0.18600
C1149       C  0.99456077  0.18081746  0.41549727     0.15800
C1150       C  0.99076655  0.20812014  0.40531820    -0.18700
C1151       C  0.97311201  0.16713729  0.42945356    -0.20500
C1152       C  0.97647914  0.13933205  0.43750223    -0.13000
C1153       C  0.00169420  0.12503042  0.43272727     0.03600
C1154       C  0.02359208  0.13896521  0.41993979    -0.25200
H1155       H  0.05186647  0.21203378  0.36931522     0.08700
H1156       H  0.05968425  0.16797414  0.39026820     0.12300
H1157       H  0.97129300  0.21899598  0.40913505     0.12200
H1158       H  0.95344949  0.17762384  0.43334132     0.12000
H1159       H  0.95934504  0.12892713  0.44750591     0.12500
H1160       H  0.04295823  0.12794512  0.41588455     0.14500
C1161       C  0.03124432  0.25824833  0.35732442    -0.05500
C1162       C  0.03228059  0.26118043  0.32795307    -0.05500
C1163       C  0.05769484  0.26607733  0.31451625    -0.23600
C1164       C  0.08242226  0.26852881  0.33013094     0.18600
C1165       C  0.08111116  0.26813903  0.35960224     0.15800
C1166       C  0.05575263  0.26387431  0.37276632    -0.18700
C1167       C  0.10544250  0.27027771  0.37566332    -0.20500
C1168       C  0.13121932  0.27105402  0.36264101    -0.13000
C1169       C  0.13299854  0.27047286  0.33343621     0.03600
C1170       C  0.10856163  0.27015000  0.31706841    -0.25200
H1171       H  0.01387022  0.25934277  0.31511974     0.08700
H1172       H  0.05813240  0.26711418  0.29187415     0.12300
H1173       H  0.05541141  0.26261146  0.39542487     0.12200
H1174       H  0.10463108  0.27007555  0.39832719     0.12000
H1175       H  0.14991968  0.27136142  0.37538872     0.12500
H1176       H  0.11002654  0.26958191  0.29444234     0.14500
C1177       C  0.94810093  0.98699449  0.13398753    -0.05500
C1178       C  0.96549561  0.98575491  0.15773505    -0.05500
C1179       C  0.95452175  0.98934579  0.18452781    -0.23600
C1180       C  0.92587647  0.99363161  0.18803963     0.18600
C1181       C  0.90835169  0.99474190  0.16416856     0.15800
C1182       C  0.91957161  0.99180881  0.13735632    -0.18700
C1183       C  0.87977215  0.99834439  0.16741368    -0.20500
C1184       C  0.86844946  0.99981114  0.19403373    -0.13000
C1185       C  0.88532950  0.99799208  0.21839821     0.03600
C1186       C  0.91441158  0.99611032  0.21496451    -0.25200
H1187       H  0.98767592  0.98228863  0.15555496     0.08700
H1188       H  0.96836055  0.98834823  0.20248157     0.12300
H1189       H  0.90601478  0.99262651  0.11914917     0.12200
H1190       H  0.86603268  0.99926330  0.14937038     0.12000
H1191       H  0.84603815  0.00134442  0.19572859     0.12500
H1192       H  0.92821637  0.99579672  0.23286805     0.14500
C1193       C  0.89013241  0.99602440  0.27301670    -0.05500
C1194       C  0.90791922  0.97278421  0.27739689    -0.05500
C1195       C  0.92290551  0.96935521  0.30244577    -0.23600
C1196       C  0.92086901  0.98924210  0.32380940     0.18600
C1197       C  0.90396637  0.01298927  0.31953917     0.15800
C1198       C  0.88830918  0.01577125  0.29494573    -0.18700
C1199       C  0.90229372  0.03348980  0.34029455    -0.20500
C1200       C  0.91689399  0.03032637  0.36534608    -0.13000
C1201       C  0.93278414  0.00626725  0.37048929     0.03600
C1202       C  0.93483965  0.98569519  0.34959875    -0.25200
H1203       H  0.90948427  0.95668678  0.26164345     0.08700
H1204       H  0.93579790  0.95095271  0.30522704     0.12300
H1205       H  0.87384049  0.03302938  0.29405008     0.12200
H1206       H  0.88954117  0.05195428  0.33722084     0.12000
H1207       H  0.91500598  0.04632915  0.38118521     0.12500
H1208       H  0.94728456  0.96715100  0.35340216     0.14500
C1209       C  0.82417356  0.12623811  0.24078726    -0.05500
C1210       C  0.85331552  0.12534233  0.24229997    -0.05500
C1211       C  0.86751679  0.09996695  0.24338243    -0.23600
C1212       C  0.85275751  0.07507044  0.24374203     0.18600
C1213       C  0.82343910  0.07561908  0.24315625     0.15800
C1214       C  0.80925377  0.10126569  0.24119333    -0.18700
C1215       C  0.80895144  0.05051510  0.24432418    -0.20500
C1216       C  0.82337503  0.02509832  0.24619054    -0.13000
C1217       C  0.85271929  0.02423327  0.24688253     0.03600
C1218       C  0.86698984  0.04965790  0.24473815    -0.25200
H1219       H  0.86515871  0.14432539  0.24195061     0.08700
H1220       H  0.89004977  0.09981801  0.24401786     0.12300
H1221       H  0.78672238  0.10185536  0.24032185     0.12200
H1222       H  0.78642857  0.05051908  0.24365035     0.12000
H1223       H  0.81134849  0.00632172  0.24621506     0.12500
H1224       H  0.88954900  0.04948676  0.24447096     0.14500
C1225       C  0.97806066  0.24546297  0.35668373    -0.05500
C1226       C  0.97689723  0.22604259  0.33455632    -0.05500
C1227       C  0.95201443  0.22135362  0.31976330    -0.23600
C1228       C  0.92727491  0.23521179  0.32731586     0.18600
C1229       C  0.92774308  0.25371520  0.35012666     0.15800
C1230       C  0.95258032  0.25835386  0.36464403    -0.18700
C1231       C  0.90322085  0.26721946  0.35853567    -0.20500
C1232       C  0.87833372  0.26264856  0.34435323    -0.13000
C1233       C  0.87726693  0.24440808  0.32140436     0.03600
C1234       C  0.90197705  0.23063639  0.31296473    -0.25200
H1235       H  0.99537056  0.21437796  0.32875833     0.08700
H1236       H  0.95206689  0.20660236  0.30264281     0.12300
H1237       H  0.95129071  0.27153302  0.38290285     0.12200
H1238       H  0.90327387  0.28143870  0.37612666     0.12000
H1239       H  0.85984617  0.27355342  0.35144218     0.12500
H1240       H  0.90154766  0.21643404  0.29537599     0.14500
C1241       C  0.52751248  0.26649882  0.14409196    -0.05500
C1242       C  0.52788290  0.26983353  0.17340296    -0.05500
C1243       C  0.55323725  0.27045794  0.18806389    -0.23600
C1244       C  0.57859830  0.26738056  0.17382225     0.18600
C1245       C  0.57844495  0.26375130  0.14457569     0.15800
C1246       C  0.55327524  0.26337322  0.13015700    -0.18700
C1247       C  0.60345784  0.26018692  0.13004489    -0.20500
C1248       C  0.62867396  0.26000164  0.14446569    -0.13000
C1249       C  0.62926009  0.26378353  0.17355385     0.03600
C1250       C  0.60412980  0.26759592  0.18819106    -0.25200
H1251       H  0.50884878  0.27128059  0.18522572     0.08700
H1252       H  0.55300016  0.27294888  0.21059774     0.12300
H1253       H  0.55350165  0.26044676  0.10764400     0.12200
H1254       H  0.60350670  0.25743154  0.10753011     0.12000
H1255       H  0.64777931  0.25735796  0.13280315     0.12500
H1256       H  0.60445367  0.27042265  0.21070110     0.14500
C1257       C  0.99672905  0.27306972  0.89698432    -0.05500
C1258       C  0.00257834  0.27397959  0.92593910    -0.05500
C1259       C  0.00828818  0.29925977  0.93922324    -0.23600
C1260       C  0.00819673  0.32416802  0.92396855     0.18600
C1261       C  0.00247822  0.32356597  0.89501445     0.15800
C1262       C  0.99764476  0.29823653  0.88177846    -0.18700
C1263       C  0.00158139  0.34832800  0.87964120    -0.20500
C1264       C  0.00618119  0.37365173  0.89291715    -0.13000
C1265       C  0.01246681  0.37457161  0.92161804     0.03600
C1266       C  0.01366940  0.34968419  0.93705729    -0.25200
H1267       H  0.00383150  0.25525269  0.93830894     0.08700
H1268       H  0.01292321  0.29930374  0.96143870     0.12300
H1269       H  0.99411865  0.29797368  0.85933802     0.12200
H1270       H  0.99702445  0.34813713  0.85740293     0.12000
H1271       H  0.00506996  0.39255770  0.88067963     0.12500
H1272       H  0.01811228  0.35027804  0.95931670     0.14500
C1273       C  0.99298708  0.11883361  0.93306202    -0.05500
C1274       C  0.01248875  0.12093973  0.91135614    -0.05500
C1275       C  0.01649374  0.14598952  0.89760593    -0.23600
C1276       C  0.00112648  0.16963186  0.90519425     0.18600
C1277       C  0.98146795  0.16816647  0.92688601     0.15800
C1278       C  0.97749908  0.14270435  0.94083207    -0.18700
C1279       C  0.96587673  0.19206144  0.93370408    -0.20500
C1280       C  0.96984291  0.21703872  0.91916389    -0.13000
C1281       C  0.99011033  0.21908645  0.89801088     0.03600
C1282       C  0.00496658  0.19453330  0.89086396    -0.25200
H1283       H  0.02488290  0.10315323  0.90494179     0.08700
H1284       H  0.03168702  0.14684635  0.88095972     0.12300
H1285       H  0.96240729  0.14147685  0.95753258     0.12200
H1286       H  0.95031279  0.19134292  0.94998549     0.12000
H1287       H  0.95691307  0.23485589  0.92430142     0.12500
H1288       H  0.01899911  0.19404750  0.87326558     0.14500
C1289       C  0.01965462  0.24442420  0.86258341    -0.05500
C1290       C  0.02068383  0.24654199  0.83315363    -0.05500
C1291       C  0.04604957  0.24359425  0.81901811    -0.23600
C1292       C  0.07091863  0.23899116  0.83396259     0.18600
C1293       C  0.07032758  0.23842637  0.86345569     0.15800
C1294       C  0.04507331  0.24147115  0.87735962    -0.18700
C1295       C  0.09498560  0.23455024  0.87876035    -0.20500
C1296       C  0.12020717  0.23123337  0.86492665    -0.13000
C1297       C  0.12113923  0.23127616  0.83558870     0.03600
C1298       C  0.09640558  0.23512013  0.82010055    -0.25200
H1299       H  0.00215699  0.25058055  0.82087640     0.08700
H1300       H  0.04620064  0.24483723  0.79638361     0.12300
H1301       H  0.04493043  0.24054233  0.90003043     0.12200
H1302       H  0.09477187  0.23412790  0.90143493     0.12000
H1303       H  0.13905408  0.22839825  0.87717930     0.12500
H1304       H  0.09712009  0.23565718  0.79743735     0.14500
C1305       C  0.23272296  0.30644561  0.89817916    -0.05500
C1306       C  0.20891607  0.30700899  0.91514208    -0.05500
C1307       C  0.20977603  0.31877004  0.94192181    -0.23600
C1308       C  0.23454624  0.32999916  0.95230258     0.18600
C1309       C  0.25885349  0.32837899  0.93588484     0.15800
C1310       C  0.25780952  0.31676640  0.90889938    -0.18700
C1311       C  0.28371625  0.33874014  0.94667696    -0.20500
C1312       C  0.28375113  0.35357600  0.97177563    -0.13000
C1313       C  0.25865232  0.35961678  0.98608428     0.03600
C1314       C  0.23508118  0.34417973  0.97807199    -0.25200
H1315       H  0.18940732  0.29896496  0.90736193     0.08700
H1316       H  0.19090144  0.31974508  0.95418675     0.12300
H1317       H  0.27642079  0.31587057  0.89620097     0.12200
H1318       H  0.30300001  0.33619274  0.93527583     0.12000
H1319       H  0.30356577  0.36095295  0.97927538     0.12500
H1320       H  0.21621192  0.34577230  0.99029631     0.14500
C1321       C  0.25582236  0.17731860  0.63723861    -0.05500
C1322       C  0.24728007  0.14948583  0.63688244    -0.05500
C1323       C  0.24377346  0.13525156  0.61172357    -0.23600
C1324       C  0.24835985  0.14855367  0.58616125     0.18600
C1325       C  0.25613740  0.17667408  0.58584354     0.15800
C1326       C  0.26012623  0.19092650  0.61145509    -0.18700
C1327       C  0.25987533  0.18980650  0.55990252    -0.20500
C1328       C  0.25724621  0.17491923  0.53469093    -0.13000
C1329       C  0.25161937  0.14616635  0.53475491     0.03600
C1330       C  0.24606522  0.13373760  0.56100999    -0.25200
H1331       H  0.24367681  0.13842899  0.65623079     0.08700
H1332       H  0.23765716  0.11368041  0.61229696     0.12300
H1333       H  0.26631298  0.21248116  0.61132048     0.12200
H1334       H  0.26523001  0.21156940  0.55909159     0.12000
H1335       H  0.26049668  0.18608590  0.51546856     0.12500
H1336       H  0.24159727  0.11176459  0.56199724     0.14500
C1337       C  0.49482629  0.36123476  0.55805098    -0.05500
C1338       C  0.47123753  0.36088339  0.57536041    -0.05500
C1339       C  0.46450055  0.33734262  0.59066118    -0.23600
C1340       C  0.48119502  0.31340126  0.58920210     0.18600
C1341       C  0.50458806  0.31285988  0.57153103     0.15800
C1342       C  0.51124287  0.33679366  0.55579661    -0.18700
C1343       C  0.52128502  0.28872211  0.57079421    -0.20500
C1344       C  0.51518333  0.26578746  0.58781954    -0.13000
C1345       C  0.49193663  0.26602178  0.60580095     0.03600
C1346       C  0.47520002  0.29046599  0.60607599    -0.25200
H1347       H  0.45794441  0.37908007  0.57737316     0.08700
H1348       H  0.44638866  0.33805945  0.60405926     0.12300
H1349       H  0.52951563  0.33667686  0.54262837     0.12200
H1350       H  0.53952785  0.28783241  0.55761264     0.12000
H1351       H  0.52920461  0.24803625  0.58763388     0.12500
H1352       H  0.45817451  0.29276635  0.62059782     0.14500
C1353       C  0.48739196  0.21267790  0.61660537    -0.05500
C1354       C  0.48616394  0.19073459  0.63627606    -0.05500
C1355       C  0.48611270  0.16308068  0.62790630    -0.23600
C1356       C  0.48534112  0.15634414  0.59952516     0.18600
C1357       C  0.48374009  0.17780473  0.57935156     0.15800
C1358       C  0.48520186  0.20583150  0.58790581    -0.18700
C1359       C  0.48074936  0.17071039  0.55098909    -0.20500
C1360       C  0.48045607  0.14276706  0.54275477    -0.13000
C1361       C  0.48391138  0.12152571  0.56263300     0.03600
C1362       C  0.48606687  0.12843621  0.59103159    -0.25200
H1363       H  0.48643040  0.19518829  0.65850254     0.08700
H1364       H  0.48654155  0.14694934  0.64370751     0.12300
H1365       H  0.48397761  0.22202811  0.57226844     0.12200
H1366       H  0.47896295  0.18673695  0.53516360     0.12000
H1367       H  0.47869632  0.13773239  0.52072483     0.12500
H1368       H  0.48830814  0.11205253  0.60647062     0.14500
C1369       C  0.45940318  0.24575963  0.64222588    -0.05500
C1370       C  0.43576305  0.24324000  0.62459033    -0.05500
C1371       C  0.40885827  0.24473265  0.63498878    -0.23600
C1372       C  0.40443778  0.24891424  0.66347943     0.18600
C1373       C  0.42753468  0.25123817  0.68180830     0.15800
C1374       C  0.45489649  0.24925610  0.67121117    -0.18700
C1375       C  0.42273369  0.25576936  0.71038664    -0.20500
C1376       C  0.39552064  0.25867263  0.72041441    -0.13000
C1377       C  0.37252189  0.25648650  0.70221096     0.03600
C1378       C  0.37719180  0.25110620  0.67379556    -0.25200
H1379       H  0.43827516  0.24026640  0.60227592     0.08700
H1380       H  0.39147153  0.24286252  0.62060966     0.12300
H1381       H  0.47231437  0.25029367  0.68556083     0.12200
H1382       H  0.44000196  0.25747254  0.72492018     0.12000
H1383       H  0.39242660  0.26240654  0.74254103     0.12500
H1384       H  0.35963236  0.24934287  0.65959232     0.14500
C1385       C  0.26483608  0.85442735  0.98135367    -0.05500
C1386       C  0.26721313  0.82521980  0.98252259    -0.05500
C1387       C  0.26881560  0.80941023  0.95790170    -0.23600
C1388       C  0.26791590  0.82231153  0.93155592     0.18600
C1389       C  0.26560773  0.85146811  0.93003076     0.15800
C1390       C  0.26501796  0.86716820  0.95465539    -0.18700
C1391       C  0.26376858  0.86455659  0.90387858    -0.20500
C1392       C  0.26434127  0.84886002  0.87931850    -0.13000
C1393       C  0.26745954  0.81985734  0.88042143     0.03600
C1394       C  0.26931957  0.80666257  0.90669750    -0.25200
H1395       H  0.26866968  0.81441101  0.00227271     0.08700
H1396       H  0.27080668  0.78704217  0.95948190     0.12300
H1397       H  0.26389179  0.88962382  0.95322121     0.12200
H1398       H  0.26171031  0.88693487  0.90241854     0.12000
H1399       H  0.26277903  0.85946585  0.85937847     0.12500
H1400       H  0.27130812  0.78425289  0.90777810     0.14500
C1401       C  0.29199181  0.88966399  0.00523107    -0.05500
C1402       C  0.31680323  0.87355639  0.00398252    -0.05500
C1403       C  0.34278991  0.88564078  0.00544290    -0.23600
C1404       C  0.34499985  0.91424170  0.00878700     0.18600
C1405       C  0.32075832  0.93113395  0.00909968     0.15800
C1406       C  0.29439463  0.91888432  0.00620515    -0.18700
C1407       C  0.32341372  0.95984367  0.01332653    -0.20500
C1408       C  0.34970569  0.97139250  0.01784964    -0.13000
C1409       C  0.37378364  0.95452083  0.01744328     0.03600
C1410       C  0.37119995  0.92602263  0.01248000    -0.25200
H1411       H  0.31601710  0.85112215  0.00318348     0.08700
H1412       H  0.36118026  0.87241148  0.00509249     0.12300
H1413       H  0.27617619  0.93218715  0.00584293     0.12200
H1414       H  0.30516632  0.97325313  0.01371058     0.12000
H1415       H  0.35126773  0.99353499  0.02132430     0.12500
H1416       H  0.38962937  0.91281510  0.01224146     0.14500
C1417       C  0.23741625  0.89205188  0.00741474    -0.05500
C1418       C  0.23273442  0.91194828  0.02871935    -0.05500
C1419       C  0.20772128  0.92717656  0.03014620    -0.23600
C1420       C  0.18644569  0.92271398  0.01050404     0.18600
C1421       C  0.19042297  0.90248449  0.98951619     0.15800
C1422       C  0.21512083  0.88699092  0.98864350    -0.18700
C1423       C  0.16941543  0.89756629  0.96974338    -0.20500
C1424       C  0.14452906  0.91252031  0.97077619    -0.13000
C1425       C  0.14010665  0.93233452  0.99172446     0.03600
C1426       C  0.16102920  0.93753190  0.01166489    -0.25200
H1427       H  0.24845847  0.91547462  0.04459107     0.08700
H1428       H  0.20496261  0.94227507  0.04673944     0.12300
H1429       H  0.21601826  0.87030056  0.97359497     0.12200
H1430       H  0.17221461  0.88210928  0.95348187     0.12000
H1431       H  0.12844891  0.90832908  0.95541583     0.12500
H1432       H  0.15743284  0.95279553  0.02796508     0.14500
C1433       C  0.26377119  0.85818429  0.03614277    -0.05500
C1434       C  0.28251938  0.86505776  0.05810911    -0.05500
C1435       C  0.27958937  0.85452994  0.08496111    -0.23600
C1436       C  0.25758625  0.83716497  0.09125863     0.18600
C1437       C  0.23856204  0.82965499  0.07001464     0.15800
C1438       C  0.24162279  0.84030200  0.04274612    -0.18700
C1439       C  0.21652645  0.81207873  0.07666896    -0.20500
C1440       C  0.21344380  0.80226301  0.10405437    -0.13000
C1441       C  0.23215447  0.81009987  0.12537168     0.03600
C1442       C  0.25419171  0.82759384  0.11869143    -0.25200
H1443       H  0.29901128  0.87980618  0.05550710     0.08700
H1444       H  0.29421847  0.86069583  0.10108718     0.12300
H1445       H  0.22633412  0.83538647  0.02679767     0.12200
H1446       H  0.20170047  0.80592704  0.06073994     0.12000
H1447       H  0.19633952  0.78857792  0.10856240     0.12500
H1448       H  0.26899653  0.83348588  0.13477124     0.14500
C1449       C  0.31306309  0.87222075  0.24361809    -0.05500
C1450       C  0.34124722  0.87199976  0.25163873    -0.05500
C1451       C  0.35582764  0.89660518  0.25440561    -0.23600
C1452       C  0.34250031  0.92212135  0.24961398     0.18600
C1453       C  0.31393923  0.92308779  0.24285534     0.15800
C1454       C  0.29931379  0.89799659  0.23952130    -0.18700
C1455       C  0.30079219  0.94912853  0.23954292    -0.20500
C1456       C  0.31605579  0.97379948  0.24178563    -0.13000
C1457       C  0.34513401  0.97293520  0.24622320     0.03600
C1458       C  0.35767592  0.94660595  0.25099202    -0.25200
H1459       H  0.35235398  0.85262007  0.25521488     0.08700
H1460       H  0.37768902  0.89563500  0.26001906     0.12300
H1461       H  0.27744231  0.89851353  0.23393229     0.12200
H1462       H  0.27868277  0.95043466  0.23518771     0.12000
H1463       H  0.30484497  0.99321289  0.23976212     0.12500
H1464       H  0.37986593  0.94519810  0.25500566     0.14500
C1465       C  0.13633883  0.52910534  0.24220687    -0.05500
C1466       C  0.13479379  0.54603329  0.21804328    -0.05500
C1467       C  0.14776450  0.57175751  0.21744328    -0.23600
C1468       C  0.16292513  0.58084591  0.24068455     0.18600
C1469       C  0.16766074  0.56258375  0.26336839     0.15800
C1470       C  0.15553361  0.53640234  0.26328884    -0.18700
C1471       C  0.18300098  0.57139397  0.28660336    -0.20500
C1472       C  0.19257914  0.59851697  0.28787585    -0.13000
C1473       C  0.18707855  0.61721681  0.26589117     0.03600
C1474       C  0.17276715  0.60807056  0.24199834    -0.25200
H1475       H  0.12309978  0.54001657  0.19970299     0.08700
H1476       H  0.14500682  0.58496310  0.19926805     0.12300
H1477       H  0.15854593  0.52285629  0.28119323     0.12200
H1478       H  0.18684260  0.55760934  0.30415158     0.12000
H1479       H  0.20384347  0.60503745  0.30639348     0.12500
H1480       H  0.16897982  0.62218271  0.22469053     0.14500
C1481       C  0.02383450  0.74054399  0.14283834    -0.05500
C1482       C  0.02155640  0.73262337  0.17120495    -0.05500
C1483       C  0.04541177  0.72671196  0.18734985    -0.23600
C1484       C  0.07203663  0.72857849  0.17558416     0.18600
C1485       C  0.07440430  0.73518094  0.14693425     0.15800
C1486       C  0.05057635  0.74009420  0.13081240    -0.18700
C1487       C  0.10062904  0.73758332  0.13479618    -0.20500
C1488       C  0.12448740  0.73447834  0.15109279    -0.13000
C1489       C  0.12273592  0.72829835  0.17977552     0.03600
C1490       C  0.09635328  0.72460201  0.19186647    -0.25200
H1491       H  0.00151529  0.73034683  0.18096700     0.08700
H1492       H  0.04303486  0.72102123  0.20912897     0.12300
H1493       H  0.05279710  0.74482819  0.10874891     0.12200
H1494       H  0.10270819  0.74261742  0.11280591     0.12000
H1495       H  0.14448806  0.73712362  0.14117909     0.12500
H1496       H  0.09475563  0.71987559  0.21396718     0.14500
C1497       C  0.99363286  0.62206862  0.06724318    -0.05500
C1498       C  0.99193802  0.62093029  0.09651496    -0.05500
C1499       C  0.99230304  0.64515471  0.11240355    -0.23600
C1500       C  0.99516677  0.67096791  0.09936875     0.18600
C1501       C  0.99818318  0.67250668  0.07007811     0.15800
C1502       C  0.99684467  0.64798079  0.05399594    -0.18700
C1503       C  0.00268762  0.69848910  0.05764410    -0.20500
C1504       C  0.00370388  0.72268916  0.07404974    -0.13000
C1505       C  0.99893814  0.72159380  0.10318110     0.03600
C1506       C  0.99505362  0.69521379  0.11538711    -0.25200
H1507       H  0.98954523  0.60123533  0.10711124     0.08700
H1508       H  0.99032663  0.64368895  0.13493449     0.12300
H1509       H  0.99865375  0.64895617  0.03141764     0.12200
H1510       H  0.00580301  0.70005838  0.03526619     0.12000
H1511       H  0.00843151  0.74194955  0.06369787     0.12500
H1512       H  0.99186599  0.69365382  0.13777046     0.14500
C1513       C  0.00260917  0.77571457  0.10859625    -0.05500
C1514       C  0.98424950  0.78413932  0.08697350    -0.05500
C1515       C  0.98668912  0.81004347  0.07403215    -0.23600
C1516       C  0.00708315  0.82871333  0.08283074     0.18600
C1517       C  0.02477117  0.82146778  0.10537107     0.15800
C1518       C  0.02201947  0.79555227  0.11840529    -0.18700
C1519       C  0.04488380  0.84037110  0.11464927    -0.20500
C1520       C  0.04755832  0.86614664  0.10150263    -0.13000
C1521       C  0.03011413  0.87338354  0.07901971     0.03600
C1522       C  0.00985070  0.85467743  0.06978704    -0.25200
H1523       H  0.96801385  0.77041273  0.07986232     0.08700
H1524       H  0.97252509  0.81549587  0.05714214     0.12300
H1525       H  0.03484198  0.79142719  0.13662012     0.12200
H1526       H  0.05860120  0.83517761  0.13199197     0.12000
H1527       H  0.06317134  0.88046762  0.10888469     0.12500
H1528       H  0.99622976  0.86042757  0.05252189     0.14500
C1529       C  0.23432092  0.66882871  0.63691076    -0.05500
C1530       C  0.25520606  0.64815047  0.63539834    -0.05500
C1531       C  0.26282534  0.63640913  0.60976985    -0.23600
C1532       C  0.24959672  0.64480909  0.58492035     0.18600
C1533       C  0.22805956  0.66493039  0.58603227     0.15800
C1534       C  0.22064894  0.67699370  0.61195585    -0.18700
C1535       C  0.21413216  0.67232871  0.56123416    -0.20500
C1536       C  0.22122969  0.65969753  0.53577610    -0.13000
C1537       C  0.24327394  0.64007571  0.53392756     0.03600
C1538       C  0.25724739  0.63285685  0.55914827    -0.25200
H1539       H  0.26622397  0.64138061  0.65405459     0.08700
H1540       H  0.27921357  0.62077684  0.60940252     0.12300
H1541       H  0.20442050  0.69278159  0.61264659     0.12200
H1542       H  0.19722657  0.68739197  0.56161046     0.12000
H1543       H  0.20904505  0.66488958  0.51734204     0.12500
H1544       H  0.27313941  0.61679370  0.55936516     0.14500
C1545       C  0.27423410  0.60463244  0.50778571    -0.05500
C1546       C  0.27394676  0.57543530  0.50467986    -0.05500
C1547       C  0.29866917  0.55970565  0.50517412    -0.23600
C1548       C  0.32454118  0.57264910  0.50756021     0.18600
C1549       C  0.32546042  0.60183783  0.50953197     0.15800
C1550       C  0.30053706  0.61743802  0.51017768    -0.18700
C1551       C  0.35134548  0.61500537  0.51038618    -0.20500
C1552       C  0.37608171  0.59939330  0.50936596    -0.13000
C1553       C  0.37548217  0.57027172  0.50830280     0.03600
C1554       C  0.34952688  0.55698808  0.50751859    -0.25200
H1555       H  0.25483623  0.56439054  0.50130130     0.08700
H1556       H  0.29755386  0.53735360  0.50302901     0.12300
H1557       H  0.30150545  0.63983800  0.51197990     0.12200
H1558       H  0.35247057  0.63742095  0.51164266     0.12000
H1559       H  0.39576674  0.61007389  0.51003890     0.12500
H1560       H  0.34881743  0.53453422  0.50632206     0.14500
C1561       C  0.22013686  0.60655974  0.50304439    -0.05500
C1562       C  0.21234717  0.58822904  0.52466482    -0.05500
C1563       C  0.18691384  0.57445414  0.52404931    -0.23600
C1564       C  0.16838383  0.57831424  0.50164930     0.18600
C1565       C  0.17555928  0.59634489  0.47966442     0.15800
C1566       C  0.20072598  0.61086616  0.48088396    -0.18700
C1567       C  0.15724752  0.59980821  0.45686255    -0.20500
C1568       C  0.13206685  0.58554912  0.45594005    -0.13000
C1569       C  0.12450054  0.56818769  0.47808482     0.03600
C1570       C  0.14266764  0.56468247  0.50096513    -0.25200
H1571       H  0.22603268  0.58480899  0.54242956     0.08700
H1572       H  0.18173871  0.56076836  0.54118069     0.12300
H1573       H  0.20431142  0.62601845  0.46472833     0.12200
H1574       H  0.16244254  0.61346055  0.43970471     0.12000
H1575       H  0.11821906  0.58847288  0.43819789     0.12500
H1576       H  0.13683112  0.55120006  0.51806201     0.14500
C1577       C  0.25251863  0.64202665  0.48017703    -0.05500
C1578       C  0.25581804  0.67113874  0.48132458    -0.05500
C1579       C  0.25951546  0.68671048  0.45683155    -0.23600
C1580       C  0.26029734  0.67366173  0.43057496     0.18600
C1581       C  0.25835920  0.64448655  0.42920898     0.15800
C1582       C  0.25549238  0.62901093  0.45380834    -0.18700
C1583       C  0.25860573  0.63114971  0.40317472    -0.20500
C1584       C  0.26016274  0.64659772  0.37859205    -0.13000
C1585       C  0.26222178  0.67565793  0.37947382     0.03600
C1586       C  0.26271889  0.68914076  0.40565026    -0.25200
H1587       H  0.25592535  0.68214985  0.50100611     0.08700
H1588       H  0.26152971  0.70902985  0.45843423     0.12300
H1589       H  0.25414237  0.60659814  0.45240825     0.12200
H1590       H  0.25706865  0.60876754  0.40178367     0.12000
H1591       H  0.25992691  0.63572162  0.35874050     0.12500
H1592       H  0.26412475  0.71156134  0.40655440     0.14500
C1593       C  0.60507229  0.50243885  0.20852301    -0.05500
C1594       C  0.58977347  0.52690484  0.20180066    -0.05500
C1595       C  0.57838705  0.53127724  0.17507842    -0.23600
C1596       C  0.58128281  0.51106940  0.15417063     0.18600
C1597       C  0.59500943  0.48582409  0.16073235     0.15800
C1598       C  0.60722900  0.48191951  0.18731954    -0.18700
C1599       C  0.59692470  0.46497670  0.14030980    -0.20500
C1600       C  0.58596941  0.46931525  0.11349859    -0.13000
C1601       C  0.57355638  0.49485852  0.10615818     0.03600
C1602       C  0.57106659  0.51570478  0.12674394    -0.25200
H1603       H  0.58768870  0.54337485  0.21711181     0.08700
H1604       H  0.56767175  0.55071027  0.17067005     0.12300
H1605       H  0.61920136  0.46313147  0.19056383     0.12200
H1606       H  0.60703587  0.44529554  0.14502428     0.12000
H1607       H  0.58785363  0.45283255  0.09816786     0.12500
H1608       H  0.56096740  0.53527308  0.12151301     0.14500
C1609       C  0.56830218  0.49829531  0.36430048    -0.05500
C1610       C  0.59695488  0.49204860  0.36495805    -0.05500
C1611       C  0.61243930  0.49095439  0.34033172    -0.23600
C1612       C  0.59953334  0.49548312  0.31434587     0.18600
C1613       C  0.57064036  0.50073281  0.31309897     0.15800
C1614       C  0.55519531  0.50257027  0.33813460    -0.18700
C1615       C  0.55781139  0.50397186  0.28682533    -0.20500
C1616       C  0.57350291  0.50284496  0.26213506    -0.13000
C1617       C  0.60275887  0.49959041  0.26304660     0.03600
C1618       C  0.61523792  0.49518258  0.28967428    -0.25200
H1619       H  0.60761648  0.48861720  0.38470549     0.08700
H1620       H  0.63458225  0.48665195  0.34164280     0.12300
H1621       H  0.53305980  0.50701330  0.33725742     0.12200
H1622       H  0.53554087  0.50737848  0.28533377     0.12000
H1623       H  0.56239331  0.50503251  0.24258155     0.12500
H1624       H  0.63758274  0.49230455  0.29122996     0.14500
C1625       C  0.64112331  0.47485001  0.23856602    -0.05500
C1626       C  0.67039767  0.47622482  0.24203727    -0.05500
C1627       C  0.68660611  0.45229175  0.24636644    -0.23600
C1628       C  0.67419449  0.42623068  0.24780630     0.18600
C1629       C  0.64506654  0.42432344  0.24464076     0.15800
C1630       C  0.62888143  0.44840002  0.24039233    -0.18700
C1631       C  0.63247821  0.39831480  0.24590147    -0.20500
C1632       C  0.64862068  0.37437406  0.24990105    -0.13000
C1633       C  0.67763091  0.37593610  0.25324638     0.03600
C1634       C  0.69033906  0.40205227  0.25246231    -0.25200
H1635       H  0.68120763  0.49570002  0.24248037     0.08700
H1636       H  0.70889150  0.45425869  0.24901832     0.12300
H1637       H  0.60646948  0.44671211  0.23867411     0.12200
H1638       H  0.61015185  0.39644563  0.24357173     0.12000
H1639       H  0.63832940  0.35450827  0.25056018     0.12500
H1640       H  0.71271302  0.40346296  0.25481722     0.14500
C1641       C  0.76146535  0.32667645  0.37054537    -0.05500
C1642       C  0.75745373  0.35558405  0.37036294    -0.05500
C1643       C  0.75524356  0.37026050  0.39541973    -0.23600
C1644       C  0.75632622  0.35616088  0.42104966     0.18600
C1645       C  0.75963255  0.32705007  0.42153280     0.15800
C1646       C  0.76268337  0.31247248  0.39624533    -0.18700
C1647       C  0.75933105  0.31305139  0.44724951    -0.20500
C1648       C  0.75590586  0.32776724  0.47231286    -0.13000
C1649       C  0.75389254  0.35704398  0.47232588     0.03600
C1650       C  0.75391052  0.37080593  0.44616689    -0.25200
H1651       H  0.75644183  0.36690424  0.35079349     0.08700
H1652       H  0.75248361  0.39260713  0.39474759     0.12300
H1653       H  0.76535339  0.29009813  0.39650745     0.12200
H1654       H  0.76125913  0.29063282  0.44795633     0.12000
H1655       H  0.75463685  0.31588587  0.49137723     0.12500
H1656       H  0.75196744  0.39324142  0.44550733     0.14500
C1657       C  0.61915474  0.41299183  0.47840787    -0.05500
C1658       C  0.62142540  0.38405558  0.48125561    -0.05500
C1659       C  0.64754594  0.37125382  0.48428212    -0.23600
C1660       C  0.67173946  0.38728089  0.48541843     0.18600
C1661       C  0.66970547  0.41638072  0.48309354     0.15800
C1662       C  0.64349185  0.42901352  0.47900460    -0.18700
C1663       C  0.69386970  0.43234634  0.48528801    -0.20500
C1664       C  0.71977963  0.41969587  0.49057222    -0.13000
C1665       C  0.72218062  0.39064763  0.49350438     0.03600
C1666       C  0.69785240  0.37469132  0.48948250    -0.25200
H1667       H  0.60300532  0.37133701  0.48087278     0.08700
H1668       H  0.64878627  0.34886580  0.48625107     0.12300
H1669       H  0.64192649  0.45140887  0.47720301     0.12200
H1670       H  0.69268773  0.45472430  0.48324363     0.12000
H1671       H  0.73779130  0.43281558  0.49188468     0.12500
H1672       H  0.69925717  0.35224932  0.49087783     0.14500
C1673       C  0.77584795  0.39429867  0.50331463    -0.05500
C1674       C  0.77693775  0.41261615  0.52645027    -0.05500
C1675       C  0.80155911  0.42641637  0.53378872    -0.23600
C1676       C  0.82604347  0.42222954  0.51835351     0.18600
C1677       C  0.82519296  0.40456144  0.49482271     0.15800
C1678       C  0.80056997  0.39090225  0.48756278    -0.18700
C1679       C  0.84932444  0.39988420  0.47922671    -0.20500
C1680       C  0.87428660  0.41204742  0.48710003    -0.13000
C1681       C  0.87599569  0.42940395  0.51077769     0.03600
C1682       C  0.85148263  0.43475670  0.52620965    -0.25200
H1683       H  0.75883084  0.41539922  0.53957428     0.08700
H1684       H  0.80160396  0.43980531  0.55200999     0.12300
H1685       H  0.80172116  0.37634584  0.47040979     0.12200
H1686       H  0.84900515  0.38650021  0.46098492     0.12000
H1687       H  0.89240133  0.40779899  0.47435545     0.12500
H1688       H  0.85225903  0.44822265  0.54436047     0.14500
C1689       C  0.30184819  0.61012102  0.75867854    -0.05500
C1690       C  0.31873181  0.60357140  0.78191496    -0.05500
C1691       C  0.32987925  0.57684523  0.78514769    -0.23600
C1692       C  0.32512669  0.55656972  0.76464937     0.18600
C1693       C  0.30749214  0.56272570  0.74173273     0.15800
C1694       C  0.29542609  0.58922160  0.73923297    -0.18700
C1695       C  0.30320067  0.54263456  0.72106000    -0.20500
C1696       C  0.31883993  0.51804700  0.72135841    -0.13000
C1697       C  0.33910885  0.51296487  0.74235284     0.03600
C1698       C  0.33915513  0.53092228  0.76577602    -0.25200
H1699       H  0.32359771  0.61921526  0.79742003     0.08700
H1700       H  0.34333824  0.57246306  0.80290812     0.12300
H1701       H  0.28229886  0.59397094  0.72130334     0.12200
H1702       H  0.28911977  0.54665509  0.70370964     0.12000
H1703       H  0.31669306  0.50383938  0.70392632     0.12500
H1704       H  0.35089051  0.52599841  0.78444700     0.14500
C1705       C  0.34186938  0.46238994  0.73848066    -0.05500
C1706       C  0.33826301  0.44448146  0.71537034    -0.05500
C1707       C  0.32741375  0.41790946  0.71902368    -0.23600
C1708       C  0.31923566  0.40898772  0.74562231     0.18600
C1709       C  0.31896224  0.42809527  0.76801537     0.15800
C1710       C  0.32907291  0.45495424  0.76395866    -0.18700
C1711       C  0.31013015  0.41955374  0.79452426    -0.20500
C1712       C  0.30261405  0.39200538  0.79905429    -0.13000
C1713       C  0.30396665  0.37246134  0.77722962     0.03600
C1714       C  0.31182322  0.38124674  0.75035672    -0.25200
H1715       H  0.34458544  0.45034982  0.69457418     0.08700
H1716       H  0.32642467  0.40398416  0.70124118     0.12300
H1717       H  0.32994262  0.46910129  0.78159839     0.12200
H1718       H  0.30964710  0.43400815  0.81190615     0.12000
H1719       H  0.29616029  0.38584905  0.81980366     0.12500
H1720       H  0.31215556  0.36652926  0.73318414     0.14500
C1721       C  0.43199718  0.50831975  0.85283628    -0.05500
C1722       C  0.43052609  0.53333904  0.83766248    -0.05500
C1723       C  0.42024746  0.53382661  0.81012598    -0.23600
C1724       C  0.41103035  0.50932695  0.79734417     0.18600
C1725       C  0.41353654  0.48400361  0.81204716     0.15800
C1726       C  0.42417450  0.48358631  0.83944870    -0.18700
C1727       C  0.40452834  0.45954094  0.79940508    -0.20500
C1728       C  0.38977319  0.46065541  0.77425382    -0.13000
C1729       C  0.38296349  0.48638910  0.76144765     0.03600
C1730       C  0.39758271  0.50990667  0.77103317    -0.25200
H1731       H  0.43668527  0.55267110  0.84731985     0.08700
H1732       H  0.41851351  0.55350317  0.79925589     0.12300
H1733       H  0.42566962  0.46403014  0.85059929     0.12200
H1734       H  0.40761268  0.43966790  0.80963953     0.12000
H1735       H  0.38265380  0.44120899  0.76565849     0.12500
H1736       H  0.39533942  0.52943248  0.75994929     0.14500
C1737       C  0.37653226  0.49252214  0.71014856    -0.05500
C1738       C  0.37630656  0.51782659  0.69499117    -0.05500
C1739       C  0.38895850  0.51990905  0.66878655    -0.23600
C1740       C  0.40290328  0.49705881  0.65712970     0.18600
C1741       C  0.40555255  0.47240787  0.67296946     0.15800
C1742       C  0.39331123  0.47067438  0.69959481    -0.18700
C1743       C  0.41991873  0.44961505  0.66166982    -0.20500
C1744       C  0.43133050  0.45112557  0.63489488    -0.13000
C1745       C  0.42858788  0.47540464  0.61864813     0.03600
C1746       C  0.41433327  0.49844040  0.63001789    -0.25200
H1747       H  0.36637041  0.53634747  0.70312935     0.08700
H1748       H  0.38757060  0.53938845  0.65751362     0.12300
H1749       H  0.39550645  0.45163213  0.71150858     0.12200
H1750       H  0.42212430  0.43048674  0.67343437     0.12000
H1751       H  0.44211837  0.43301719  0.62672833     0.12500
H1752       H  0.41232967  0.51739378  0.61792618     0.14500
C1753       C  0.75014110  0.18056008  0.12246304    -0.05500
C1754       C  0.76695222  0.15648441  0.12275597    -0.05500
C1755       C  0.77317360  0.14250446  0.09810597    -0.23600
C1756       C  0.76275940  0.15223174  0.07251379     0.18600
C1757       C  0.74604596  0.17642509  0.07149003     0.15800
C1758       C  0.73981553  0.19060941  0.09658118    -0.18700
C1759       C  0.73529280  0.18529612  0.04551828    -0.20500
C1760       C  0.74070738  0.16999034  0.02101994    -0.13000
C1761       C  0.75799752  0.14608397  0.02172137     0.03600
C1762       C  0.76827800  0.13737853  0.04810912    -0.25200
H1763       H  0.77532145  0.14823131  0.14216735     0.08700
H1764       H  0.78601833  0.12388094  0.09911302     0.12300
H1765       H  0.72689566  0.20918762  0.09597407     0.12200
H1766       H  0.72195433  0.20354211  0.04428200     0.12000
H1767       H  0.73056367  0.17641776  0.00180814     0.12500
H1768       H  0.77988103  0.11805709  0.05004723     0.14500
C1769       C  0.73398056  0.10761914  0.99984215    -0.05500
C1770       C  0.73179410  0.08422759  0.01744580    -0.05500
C1771       C  0.70670904  0.06952572  0.01927560    -0.23600
C1772       C  0.68260352  0.07901185  0.00523644     0.18600
C1773       C  0.68371794  0.10413955  0.99023611     0.15800
C1774       C  0.70891585  0.11810235  0.98786856    -0.18700
C1775       C  0.65955784  0.11518171  0.97779206    -0.20500
C1776       C  0.63447701  0.10113221  0.97961822    -0.13000
C1777       C  0.63311837  0.07549204  0.99333089     0.03600
C1778       C  0.65725516  0.06441978  0.00631871    -0.25200
H1779       H  0.74915116  0.07743411  0.03025755     0.08700
H1780       H  0.70602397  0.05105942  0.03215732     0.12300
H1781       H  0.70890064  0.13752956  0.97646867     0.12200
H1782       H  0.66006935  0.13468530  0.96652853     0.12000
H1783       H  0.61610871  0.11002438  0.96970972     0.12500
H1784       H  0.65617441  0.04487368  0.01744411     0.14500
C1785       C  0.87861697  0.05403628  0.01340761    -0.05500
C1786       C  0.85640029  0.03531460  0.01288692    -0.05500
C1787       C  0.82911003  0.04468076  0.00782336    -0.23600
C1788       C  0.82339735  0.07308445  0.00411508     0.18600
C1789       C  0.84566504  0.09199422  0.00517915     0.15800
C1790       C  0.87307117  0.08236462  0.00921981    -0.18700
C1791       C  0.84023388  0.12032134  0.00236304    -0.20500
C1792       C  0.81301960  0.12998166  0.99954855    -0.13000
C1793       C  0.79009886  0.11174035  0.99893066     0.03600
C1794       C  0.79588391  0.08293275  0.99981451    -0.25200
H1795       H  0.86024581  0.01331066  0.01582538     0.08700
H1796       H  0.81244394  0.02975620  0.00723012     0.12300
H1797       H  0.89004977  0.09698006  0.00969604     0.12200
H1798       H  0.85700000  0.13515039  0.00299481     0.12000
H1799       H  0.80973050  0.15221426  0.99838612     0.12500
H1800       H  0.77949479  0.06807424  0.99700879     0.14500
C1801       C  0.19097408  0.87525315  0.76440030    -0.05500
C1802       C  0.21017178  0.89708385  0.76611875    -0.05500
C1803       C  0.20137314  0.92478733  0.76351032    -0.23600
C1804       C  0.17311498  0.93125213  0.75964409     0.18600
C1805       C  0.15375064  0.90933876  0.75849377     0.15800
C1806       C  0.16278551  0.88161352  0.76040509    -0.18700
C1807       C  0.12548970  0.91539097  0.75592136    -0.20500
C1808       C  0.11639732  0.94274547  0.75402150    -0.13000
C1809       C  0.13524554  0.96515276  0.75357277     0.03600
C1810       C  0.16382893  0.95909042  0.75710007    -0.25200
H1811       H  0.23211344  0.89270003  0.76923443     0.08700
H1812       H  0.21664003  0.94111514  0.76466431     0.12300
H1813       H  0.14777978  0.86500376  0.75948853     0.12200
H1814       H  0.11030924  0.89894469  0.75545303     0.12000
H1815       H  0.09423588  0.94660274  0.75198332     0.12500
H1816       H  0.17875055  0.97566632  0.75830595     0.14500
C1817       C  0.17781766  0.11945224  0.75255159    -0.05500
C1818       C  0.15649297  0.11724877  0.77238044    -0.05500
C1819       C  0.14322252  0.09222428  0.77670306    -0.23600
C1820       C  0.15082338  0.06869275  0.76125201     0.18600
C1821       C  0.17193333  0.07019991  0.74105200     0.15800
C1822       C  0.18551484  0.09570959  0.73678950    -0.18700
C1823       C  0.17845274  0.04631253  0.72530263    -0.20500
C1824       C  0.16383489  0.02146808  0.72937278    -0.13000
C1825       C  0.14275143  0.01960782  0.74975557     0.03600
C1826       C  0.13668466  0.04398503  0.76537065    -0.25200
H1827       H  0.15004721  0.13492651  0.78487830     0.08700
H1828       H  0.12686661  0.09132219  0.79218909     0.12300
H1829       H  0.20180135  0.09709174  0.72128948     0.12200
H1830       H  0.19431433  0.04703666  0.70932069     0.12000
H1831       H  0.16826457  0.00394913  0.71584581     0.12500
H1832       H  0.11950755  0.04490642  0.77982234     0.14500
C1833       C  0.07831482  0.98642971  0.61947945    -0.05500
C1834       C  0.09281632  0.96214485  0.62690978    -0.05500
C1835       C  0.10375110  0.95903887  0.65372806    -0.23600
C1836       C  0.09959987  0.97984248  0.67383971     0.18600
C1837       C  0.08435566  0.00406939  0.66700832     0.15800
C1838       C  0.07418242  0.00753513  0.63952219    -0.18700
C1839       C  0.07997201  0.02433678  0.68771167    -0.20500
C1840       C  0.09082162  0.02061804  0.71481309    -0.13000
C1841       C  0.10648318  0.99661179  0.72195299     0.03600
C1842       C  0.11105748  0.97672309  0.70051264    -0.25200
H1843       H  0.09617163  0.94575633  0.61171267     0.08700
H1844       H  0.11535283  0.94026190  0.65878494     0.12300
H1845       H  0.06273467  0.02623712  0.63384891     0.12200
H1846       H  0.06841963  0.04318940  0.68288716     0.12000
H1847       H  0.08772127  0.03697856  0.73005968     0.12500
H1848       H  0.12460909  0.95895280  0.70363795     0.14500
C1849       C  0.07741848  0.00666041  0.87955941    -0.05500
C1850       C  0.10621795  0.00159560  0.87889481    -0.05500
C1851       C  0.11985533  0.99805600  0.85352437    -0.23600
C1852       C  0.10487627  0.99913689  0.82834167     0.18600
C1853       C  0.07592273  0.00402098  0.82848249     0.15800
C1854       C  0.06231009  0.00806742  0.85420199    -0.18700
C1855       C  0.06124143  0.00448593  0.80292931    -0.20500
C1856       C  0.07525876  0.00074974  0.77744823    -0.13000
C1857       C  0.10436868  0.99702787  0.77709598     0.03600
C1858       C  0.11864651  0.99556013  0.80302285    -0.25200
H1859       H  0.11829269  0.00053011  0.89808108     0.08700
H1860       H  0.14213221  0.99434430  0.85361178     0.12300
H1861       H  0.04003026  0.01171810  0.85453545     0.12200
H1862       H  0.03891299  0.00773935  0.80265261     0.12000
H1863       H  0.06321497  0.00089147  0.75830805     0.12500
H1864       H  0.14102432  0.99243197  0.80327063     0.14500
C1865       C  0.47565751  0.74868051  0.35322222    -0.05500
C1866       C  0.47380155  0.76904630  0.33195229    -0.05500
C1867       C  0.44863320  0.77455130  0.31771836    -0.23600
C1868       C  0.42412020  0.76091261  0.32526854     0.18600
C1869       C  0.42534866  0.74119883  0.34704575     0.15800
C1870       C  0.45066162  0.73519013  0.36053075    -0.18700
C1871       C  0.40101958  0.72822101  0.35579182    -0.20500
C1872       C  0.37558941  0.73458991  0.34315298    -0.13000
C1873       C  0.37369258  0.75400912  0.32121234     0.03600
C1874       C  0.39826938  0.76707243  0.31220202    -0.25200
H1875       H  0.49185114  0.78115643  0.32670422     0.08700
H1876       H  0.44818098  0.79016608  0.30139677     0.12300
H1877       H  0.45007727  0.72096087  0.37800865     0.12200
H1878       H  0.40159592  0.71315631  0.37264774     0.12000
H1879       H  0.35731193  0.72403874  0.35060529     0.12500
H1880       H  0.39726531  0.78213047  0.29536287     0.14500
C1881       C  0.50027442  0.71886834  0.39007540    -0.05500
C1882       C  0.50044547  0.71864457  0.41962882    -0.05500
C1883       C  0.49755236  0.69366132  0.43451735    -0.23600
C1884       C  0.49507600  0.66817898  0.42038815     0.18600
C1885       C  0.49590471  0.66795253  0.39087945     0.15800
C1886       C  0.49843152  0.69297496  0.37614562    -0.18700
C1887       C  0.49425572  0.64266206  0.37647167    -0.20500
C1888       C  0.49199335  0.61769303  0.39109277    -0.13000
C1889       C  0.49071837  0.61741104  0.42046926     0.03600
C1890       C  0.49208283  0.64289190  0.43505379    -0.25200
H1891       H  0.50291198  0.73756231  0.43144788     0.08700
H1892       H  0.49744210  0.69427131  0.45719932     0.12300
H1893       H  0.49861672  0.69247263  0.35344022     0.12200
H1894       H  0.49487257  0.64215737  0.35379123     0.12000
H1895       H  0.49081581  0.59850867  0.37934796     0.12500
H1896       H  0.49133792  0.64297086  0.45773659     0.14500
C1897       C  0.50374556  0.77349232  0.38858953    -0.05500
C1898       C  0.48133221  0.78167541  0.40586936    -0.05500
C1899       C  0.48027149  0.80802903  0.41838399    -0.23600
C1900       C  0.50188083  0.82695607  0.41449944     0.18600
C1901       C  0.52489015  0.81909669  0.39811353     0.15800
C1902       C  0.52513146  0.79327391  0.38450735    -0.18700
C1903       C  0.54712814  0.83751762  0.39493511    -0.20500
C1904       C  0.54620824  0.86385081  0.40730810    -0.13000
C1905       C  0.52267725  0.87253550  0.42225755     0.03600
C1906       C  0.50062997  0.85386401  0.42603866    -0.25200
H1907       H  0.46408483  0.76781704  0.40906798     0.08700
H1908       H  0.46238901  0.81367801  0.43093564     0.12300
H1909       H  0.54175762  0.78966020  0.36985655     0.12200
H1910       H  0.56514538  0.83163770  0.38266957     0.12000
H1911       H  0.56335869  0.87787433  0.40420375     0.12500
H1912       H  0.48249696  0.86037872  0.43783277     0.14500
C1913       C  0.77980570  0.60451416  0.99975042    -0.05500
C1914       C  0.77950457  0.57524629  0.99949110    -0.05500
C1915       C  0.80444267  0.55993272  0.99706791    -0.23600
C1916       C  0.83004517  0.57354484  0.99488907     0.18600
C1917       C  0.83073482  0.60260346  0.99841165     0.15800
C1918       C  0.80594685  0.61755096  0.00232616    -0.18700
C1919       C  0.85597127  0.61661533  0.99614575    -0.20500
C1920       C  0.88036148  0.60204746  0.98986585    -0.13000
C1921       C  0.88007143  0.57319289  0.98569814     0.03600
C1922       C  0.85482737  0.55889804  0.98858503    -0.25200
H1923       H  0.76020733  0.56404396  0.00005532     0.08700
H1924       H  0.80356401  0.53752479  0.99556479     0.12300
H1925       H  0.80676774  0.63999667  0.00369633     0.12200
H1926       H  0.85676045  0.63895316  0.99864586     0.12000
H1927       H  0.89955172  0.61343754  0.98798928     0.12500
H1928       H  0.85451640  0.53655406  0.98598167     0.14500
C1929       C  0.72561882  0.60810385  0.99148695    -0.05500
C1930       C  0.72178256  0.58872086  0.96960120    -0.05500
C1931       C  0.69558790  0.57726745  0.96399473    -0.23600
C1932       C  0.67227055  0.58514336  0.97984770     0.18600
C1933       C  0.67557215  0.60470934  0.00152001     0.15800
C1934       C  0.70160816  0.61632327  0.00668034    -0.18700
C1935       C  0.65265599  0.61277952  0.01774532    -0.20500
C1936       C  0.62666715  0.60123672  0.01289063    -0.13000
C1937       C  0.62286745  0.58202227  0.99126383     0.03600
C1938       C  0.64567210  0.57411925  0.97448582    -0.25200
H1939       H  0.73908053  0.58290004  0.95633729     0.08700
H1940       H  0.69352886  0.56249163  0.94703187     0.12300
H1941       H  0.70235028  0.63276149  0.02202955     0.12200
H1942       H  0.65490671  0.62778296  0.03449214     0.12000
H1943       H  0.60936140  0.60740085  0.02602335     0.12500
H1944       H  0.64283591  0.55901529  0.95792066     0.14500
C1945       C  0.74484402  0.67019210  0.12448220    -0.05500
C1946       C  0.73945771  0.64171013  0.12310542    -0.05500
C1947       C  0.74105418  0.62759970  0.09769728    -0.23600
C1948       C  0.74721833  0.64191462  0.07302299     0.18600
C1949       C  0.75139003  0.67082652  0.07369984     0.15800
C1950       C  0.75078932  0.68481963  0.09967751    -0.18700
C1951       C  0.75625421  0.68493814  0.04842336    -0.20500
C1952       C  0.75686159  0.67050610  0.02278680    -0.13000
C1953       C  0.75306364  0.64152780  0.02200586     0.03600
C1954       C  0.74909735  0.62757123  0.04768397    -0.25200
H1955       H  0.73494260  0.63014505  0.14195148     0.08700
H1956       H  0.73748350  0.60543639  0.09735067     0.12300
H1957       H  0.75471449  0.70690735  0.10063038     0.12200
H1958       H  0.75949700  0.70714883  0.04846689     0.12000
H1959       H  0.76078333  0.68203679  0.00385044     0.12500
H1960       H  0.74642301  0.60524693  0.04762130     0.14500
C1961       C  0.82460337  0.86833630  0.24276098    -0.05500
C1962       C  0.84171743  0.87386134  0.21970162    -0.05500
C1963       C  0.85252369  0.90007552  0.21554882    -0.23600
C1964       C  0.84651991  0.92152788  0.23433807     0.18600
C1965       C  0.82952735  0.91664475  0.25771252     0.15800
C1966       C  0.81859844  0.88989825  0.26191164    -0.18700
C1967       C  0.82430888  0.93850944  0.27650652    -0.20500
C1968       C  0.83626240  0.96465510  0.27232855    -0.13000
C1969       C  0.85327728  0.96987858  0.24893118     0.03600
C1970       C  0.85813135  0.94755138  0.23020846    -0.25200
H1971       H  0.84686597  0.85782478  0.20463434     0.08700
H1972       H  0.86568197  0.90353834  0.19756457     0.12300
H1973       H  0.80539577  0.88597157  0.27974893     0.12200
H1974       H  0.81153427  0.93523130  0.29478201     0.12000
H1975       H  0.83289474  0.98071331  0.28785184     0.12500
H1976       H  0.87236408  0.94934229  0.21292335     0.14500
C1977       C  0.53000280  0.74084833  0.35556691    -0.05500
C1978       C  0.53187995  0.73769731  0.32626344    -0.05500
C1979       C  0.55791236  0.73623952  0.31309050    -0.23600
C1980       C  0.58260946  0.73814067  0.32881925     0.18600
C1981       C  0.58102446  0.73975140  0.35823169     0.15800
C1982       C  0.55504226  0.73940777  0.37129128    -0.18700
C1983       C  0.60536997  0.74295637  0.37417227    -0.20500
C1984       C  0.63113218  0.74505124  0.36102936    -0.13000
C1985       C  0.63312678  0.74287074  0.33186043     0.03600
C1986       C  0.60882523  0.73895201  0.31578508    -0.25200
H1987       H  0.51347070  0.73633741  0.31332059     0.08700
H1988       H  0.55870206  0.73439112  0.29051438     0.12300
H1989       H  0.55414333  0.74067478  0.39392714     0.12200
H1990       H  0.60441076  0.74451143  0.39676787     0.12000
H1991       H  0.64963952  0.74792082  0.37368848     0.12500
H1992       H  0.61029439  0.73743538  0.29320757     0.14500
C1993       C  0.63914929  0.52817410  0.23721458    -0.05500
C1994       C  0.65661632  0.53438443  0.21435138    -0.05500
C1995       C  0.67037879  0.55972466  0.21262755    -0.23600
C1996       C  0.66705672  0.57968958  0.23367896     0.18600
C1997       C  0.65016817  0.57372861  0.25691468     0.15800
C1998       C  0.63622522  0.54850509  0.25838195    -0.18700
C1999       C  0.64680248  0.59340022  0.27819894    -0.20500
C2000       C  0.65952228  0.61906736  0.27621810    -0.13000
C2001       C  0.67578163  0.62571141  0.25282429     0.03600
C2002       C  0.67976903  0.60572836  0.23169240    -0.25200
H2003       H  0.65916687  0.51958473  0.19746188     0.08700
H2004       H  0.68326577  0.56385043  0.19460446     0.12300
H2005       H  0.62239109  0.54568864  0.27581696     0.28200
H2006       H  0.63404730  0.58906674  0.29627782     0.12000
H2007       H  0.65619501  0.63391008  0.29293483     0.12500
H2008       H  0.69246995  0.61048009  0.21368353     0.14500
C2009       C  0.86698429  0.74793226  0.16273924    -0.05500
C2010       C  0.87033213  0.73220717  0.13818674    -0.05500
C2011       C  0.89636607  0.72922210  0.12579889    -0.23600
C2012       C  0.91973620  0.74161969  0.13789740     0.18600
C2013       C  0.91671040  0.75815324  0.16208358     0.15800
C2014       C  0.89023838  0.76140451  0.17433606    -0.18700
C2015       C  0.94022281  0.77109241  0.17343107    -0.20500
C2016       C  0.96643100  0.76737241  0.16110960    -0.13000
C2017       C  0.97016588  0.74954957  0.13792424     0.03600
C2018       C  0.94603650  0.73761135  0.12602224    -0.25200
H2019       H  0.85275179  0.72190690  0.12866165     0.08700
H2020       H  0.89829675  0.71675493  0.10700502     0.12300
H2021       H  0.88790645  0.77361369  0.19325791     0.12200
H2022       H  0.93831268  0.78434335  0.19166136     0.12000
H2023       H  0.98396682  0.77840142  0.16979251     0.12500
H2024       H  0.94725312  0.72564694  0.10689309     0.14500
C2025       C  0.88339009  0.92823782  0.48570581    -0.05500
C2026       C  0.86420583  0.95041517  0.48380498    -0.05500
C2027       C  0.83561067  0.94584089  0.48656348    -0.23600
C2028       C  0.82567269  0.91886385  0.49050843     0.18600
C2029       C  0.84498904  0.89641270  0.49114295     0.15800
C2030       C  0.87365323  0.90126867  0.48934589    -0.18700
C2031       C  0.83543305  0.86935959  0.49349554    -0.20500
C2032       C  0.80713641  0.86445892  0.49545660    -0.13000
C2033       C  0.78725335  0.88646387  0.49630927     0.03600
C2034       C  0.79691253  0.91387778  0.49362299    -0.25200
H2035       H  0.87146591  0.97144561  0.48115127     0.08700
H2036       H  0.82132288  0.96337983  0.48569396     0.12300
H2037       H  0.88840431  0.88409960  0.49061324     0.12200
H2038       H  0.84983634  0.85188305  0.49357422     0.12000
H2039       H  0.80047439  0.84310081  0.49687919     0.12500
H2040       H  0.78230043  0.93114113  0.49338736     0.14500
C2041       C  0.73477771  0.90345434  0.49601862    -0.05500
C2042       C  0.72556238  0.91419385  0.46989626    -0.05500
C2043       C  0.69904547  0.92605239  0.46667401    -0.23600
C2044       C  0.68131043  0.92858984  0.48961938     0.18600
C2045       C  0.69192016  0.92299053  0.51660114     0.15800
C2046       C  0.71912374  0.91216386  0.51971219    -0.18700
C2047       C  0.67447902  0.92644635  0.53983785    -0.20500
C2048       C  0.64644358  0.93391118  0.53614132    -0.13000
C2049       C  0.63524280  0.93801040  0.50915637     0.03600
C2050       C  0.65310284  0.93600305  0.48598112    -0.25200
H2051       H  0.73761246  0.91204667  0.45117225     0.08700
H2052       H  0.69190325  0.93184047  0.44591165     0.12300
H2053       H  0.72663800  0.90771978  0.54065326     0.12200
H2054       H  0.68223843  0.92240491  0.56079258     0.12000
H2055       H  0.63330392  0.93570375  0.55440593     0.12500
H2056       H  0.64497897  0.93980271  0.46510755     0.14500
C2057       C  0.75769759  0.82344970  0.37105434    -0.05500
C2058       C  0.77357200  0.84763842  0.37264918    -0.05500
C2059       C  0.77556920  0.86231372  0.39749014    -0.23600
C2060       C  0.76214968  0.85284243  0.42145223     0.18600
C2061       C  0.74685245  0.82816654  0.42080232     0.15800
C2062       C  0.74427694  0.81361984  0.39528354    -0.18700
C2063       C  0.73490675  0.81861546  0.44574864    -0.20500
C2064       C  0.73789417  0.83364832  0.47087958    -0.13000
C2065       C  0.75177344  0.85941740  0.47140292     0.03600
C2066       C  0.76411267  0.86802845  0.44602368    -0.25200
H2067       H  0.78403498  0.85566667  0.35439308     0.08700
H2068       H  0.78762490  0.88118241  0.39792228     0.12300
H2069       H  0.73228525  0.79473544  0.39432969     0.12200
H2070       H  0.72361546  0.79929212  0.44594347     0.12000
H2071       H  0.72932763  0.82455067  0.48941228     0.12500
H2072       H  0.77594786  0.88700117  0.44526855     0.14500
C2073       C  0.88977411  0.49873250  0.72232981    -0.05500
C2074       C  0.89242727  0.47211929  0.70996966    -0.05500
C2075       C  0.90653120  0.46846554  0.68472521    -0.23600
C2076       C  0.91973851  0.49090954  0.67216035     0.18600
C2077       C  0.92161996  0.51623344  0.68694043     0.15800
C2078       C  0.90773435  0.51951069  0.71249162    -0.18700
C2079       C  0.93596367  0.53841640  0.67515513    -0.20500
C2080       C  0.94708525  0.53599335  0.64835678    -0.13000
C2081       C  0.94390009  0.51144868  0.63276900     0.03600
C2082       C  0.93071663  0.48867025  0.64502774    -0.25200
H2083       H  0.88317735  0.45402243  0.71920506     0.08700
H2084       H  0.90644771  0.44828732  0.67469551     0.12300
H2085       H  0.90849169  0.53933180  0.72321353     0.12200
H2086       H  0.93782217  0.55792340  0.68627407     0.12000
H2087       H  0.95743764  0.55372775  0.63940814     0.12500
H2088       H  0.92878127  0.46944779  0.63340507     0.14500
C2089       C  0.88794568  0.50917693  0.77244635    -0.05500
C2090       C  0.89283523  0.53494942  0.78575440    -0.05500
C2091       C  0.90598770  0.53616416  0.81189407    -0.23600
C2092       C  0.91578884  0.51186144  0.82480054     0.18600
C2093       C  0.91449195  0.48648958  0.81003432     0.15800
C2094       C  0.90144349  0.48549950  0.78375628    -0.18700
C2095       C  0.92538606  0.46225981  0.82219966    -0.20500
C2096       C  0.93678965  0.46300900  0.84906939    -0.13000
C2097       C  0.93717866  0.48788312  0.86445317     0.03600
C2098       C  0.92687832  0.51241001  0.85211539    -0.25200
H2099       H  0.88627655  0.55436416  0.77640905     0.08700
H2100       H  0.90810027  0.55608290  0.82218418     0.12300
H2101       H  0.89986093  0.46575983  0.77298859     0.12200
H2102       H  0.92474541  0.44265256  0.81110093     0.12000
H2103       H  0.94490615  0.44392433  0.85809983     0.12500
H2104       H  0.92775919  0.53179812  0.86360095     0.14500
C2105       C  0.84726617  0.48226000  0.75081139    -0.05500
C2106       C  0.84117114  0.47187496  0.77774632    -0.05500
C2107       C  0.82823203  0.44627297  0.78108570    -0.23600
C2108       C  0.82070917  0.43057388  0.75763587     0.18600
C2109       C  0.82269057  0.44253723  0.73076748     0.15800
C2110       C  0.83400485  0.46927670  0.72780334    -0.18700
C2111       C  0.81524237  0.42673499  0.70724774    -0.20500
C2112       C  0.80705206  0.39904768  0.71029080    -0.13000
C2113       C  0.80592606  0.38659745  0.73691860     0.03600
C2114       C  0.81216680  0.40287188  0.76058621    -0.25200
H2115       H  0.84768857  0.48273774  0.79643391     0.08700
H2116       H  0.82559137  0.43807377  0.80199793     0.12300
H2117       H  0.83604200  0.47810840  0.70706802     0.12200
H2118       H  0.81670855  0.43544767  0.68641738     0.12000
H2119       H  0.80219038  0.38716394  0.69168731     0.12500
H2120       H  0.81097355  0.39381130  0.78129532     0.14500
C2121       C  0.61413915  0.24208695  0.68588976    -0.05500
C2122       C  0.60856853  0.21638910  0.67339441    -0.05500
C2123       C  0.58285017  0.21127698  0.66111623    -0.23600
C2124       C  0.56170272  0.23149604  0.66168096     0.18600
C2125       C  0.56616855  0.25697761  0.67537820     0.15800
C2126       C  0.59271520  0.26244709  0.68708836    -0.18700
C2127       C  0.54422550  0.27654977  0.67622076    -0.20500
C2128       C  0.51865597  0.27118772  0.66280487    -0.13000
C2129       C  0.51422909  0.24616927  0.64798859     0.03600
C2130       C  0.53657742  0.22666953  0.64770730    -0.25200
H2131       H  0.62459068  0.20042783  0.67223928     0.08700
H2132       H  0.57960526  0.19149362  0.65086672     0.12300
H2133       H  0.59668889  0.28225682  0.69699726     0.12200
H2134       H  0.54702918  0.29628262  0.68667773     0.12000
H2135       H  0.50264636  0.28718142  0.66292972     0.12500
H2136       H  0.53566001  0.20803754  0.63520413     0.14500
C2137       C  0.74851741  0.35783387  0.52655248    -0.05500
C2138       C  0.77172427  0.34178139  0.53546423    -0.05500
C2139       C  0.77219375  0.32872241  0.56162892    -0.23600
C2140       C  0.74942495  0.33127581  0.57969029     0.18600
C2141       C  0.72575334  0.34653760  0.57102471     0.15800
C2142       C  0.72577496  0.36022536  0.54524393    -0.18700
C2143       C  0.70260383  0.34874992  0.58871763    -0.20500
C2144       C  0.70328311  0.33674336  0.61527992    -0.13000
C2145       C  0.72733900  0.32298058  0.62474262     0.03600
C2146       C  0.75022621  0.31981953  0.60669503    -0.25200
H2147       H  0.78992806  0.33998500  0.52231224     0.08700
H2148       H  0.79059104  0.31707009  0.56793668     0.12300
H2149       H  0.70824015  0.37373382  0.54090744     0.12200
H2150       H  0.68414924  0.36020121  0.58220003     0.12000
H2151       H  0.68551976  0.33931908  0.62892119     0.12500
H2152       H  0.76876913  0.30889389  0.61389653     0.14500
C2153       C  0.86962002  0.26944205  0.82137367    -0.05500
C2154       C  0.87538939  0.29055961  0.84062401    -0.05500
C2155       C  0.90007701  0.28986788  0.85614731    -0.23600
C2156       C  0.91968520  0.26843492  0.85204990     0.18600
C2157       C  0.91441132  0.24748482  0.83218279     0.15800
C2158       C  0.88916260  0.24785698  0.81725491    -0.18700
C2159       C  0.93420879  0.22628632  0.82808365    -0.20500
C2160       C  0.95924856  0.22617312  0.84316960    -0.13000
C2161       C  0.96531691  0.24731536  0.86267856     0.03600
C2162       C  0.94436095  0.26764909  0.86771033    -0.25200
H2163       H  0.86027221  0.30695425  0.84447063     0.08700
H2164       H  0.90381852  0.30607773  0.87139711     0.12300
H2165       H  0.88456646  0.23131468  0.80259937     0.12200
H2166       H  0.93036049  0.20979487  0.81317910     0.12000
H2167       H  0.97405113  0.20945169  0.83959755     0.12500
H2168       H  0.94662785  0.28287465  0.88415479     0.14500
C2169       C  0.76434230  0.18937074  0.87467335    -0.05500
C2170       C  0.77220832  0.20847301  0.89543240    -0.05500
C2171       C  0.77327731  0.20048423  0.92363326    -0.23600
C2172       C  0.76709991  0.17311798  0.93131506     0.18600
C2173       C  0.76082546  0.15361073  0.91010917     0.15800
C2174       C  0.75903962  0.16192550  0.88212755    -0.18700
C2175       C  0.75648049  0.12596616  0.91708753    -0.20500
C2176       C  0.75730690  0.11774893  0.94487423    -0.13000
C2177       C  0.76096605  0.13710722  0.96682272     0.03600
C2178       C  0.76698639  0.16483844  0.95963783    -0.25200
H2179       H  0.77654480  0.22978696  0.88992676     0.08700
H2180       H  0.77859621  0.21573222  0.93939836     0.12300
H2181       H  0.75355223  0.14700797  0.86605465     0.12200
H2182       H  0.75249198  0.11059775  0.90102291     0.12000
H2183       H  0.75429981  0.09597327  0.94943360     0.12500
H2184       H  0.77212353  0.17977382  0.97571221     0.14500
C2185       C  0.59743220  0.00505822  0.78089474    -0.05500
C2186       C  0.56819521  0.00395986  0.78250347    -0.05500
C2187       C  0.55506578  0.99990165  0.80832801    -0.23600
C2188       C  0.57077939  0.99737232  0.83311428     0.18600
C2189       C  0.59994929  0.99964947  0.83192831     0.15800
C2190       C  0.61287777  0.00376901  0.80616120    -0.18700
C2191       C  0.61586798  0.99775095  0.85653958    -0.20500
C2192       C  0.60293883  0.99415602  0.88232499    -0.13000
C2193       C  0.57392561  0.99187880  0.88392392     0.03600
C2194       C  0.55791136  0.99314724  0.85913667    -0.25200
H2195       H  0.55533246  0.00625472  0.76402986     0.08700
H2196       H  0.53259184  0.99878047  0.80891636     0.12300
H2197       H  0.63536036  0.00511011  0.80547090     0.12200
H2198       H  0.63830879  0.99939475  0.85588695     0.12000
H2199       H  0.61564365  0.99324296  0.90110426     0.12500
H2200       H  0.53545954  0.99179478  0.86022254     0.14500
C2201       C  0.56932601  0.01021403  0.62240108    -0.05500
C2202       C  0.58581043  0.03336570  0.62794624    -0.05500
C2203       C  0.59683545  0.03764831  0.65457664    -0.23600
C2204       C  0.59092556  0.01920719  0.67635734     0.18600
C2205       C  0.57377014  0.99618493  0.67132491     0.15800
C2206       C  0.56334574  0.99149818  0.64410541    -0.18700
C2207       C  0.56785144  0.97816089  0.69349819    -0.20500
C2208       C  0.57932164  0.98261291  0.72016751    -0.13000
C2209       C  0.59690307  0.00535754  0.72559611     0.03600
C2210       C  0.60260578  0.02328391  0.70286910    -0.25200
H2211       H  0.59057175  0.04792655  0.61142661     0.08700
H2212       H  0.60996139  0.05544765  0.65814573     0.12300
H2213       H  0.55040777  0.97369384  0.63987252     0.12200
H2214       H  0.55480250  0.96028357  0.69010410     0.12000
H2215       H  0.57513777  0.96761901  0.73639972     0.12500
H2216       H  0.61732515  0.03994494  0.70498146     0.14500
C2217       C  0.62701477  0.03647609  0.75579492    -0.05500
C2218       C  0.60788841  0.05908585  0.75620188    -0.05500
C2219       C  0.61656389  0.08644054  0.75710495    -0.23600
C2220       C  0.64478984  0.09245045  0.75833410     0.18600
C2221       C  0.66461012  0.07050373  0.75955409     0.15800
C2222       C  0.65566891  0.04251306  0.75833406    -0.18700
C2223       C  0.69293591  0.07719309  0.76187463    -0.20500
C2224       C  0.70129564  0.10509913  0.76258245    -0.13000
C2225       C  0.68156502  0.12679575  0.76038223     0.03600
C2226       C  0.65334876  0.12022649  0.75832425    -0.25200
H2227       H  0.58573569  0.05541375  0.75491288     0.08700
H2228       H  0.60106722  0.10295796  0.75662404     0.12300
H2229       H  0.67089287  0.02586271  0.75958191     0.12200
H2230       H  0.70861260  0.06089272  0.76298971     0.12000
H2231       H  0.72323303  0.10975290  0.76407370     0.12500
H2232       H  0.63799716  0.13685387  0.75687698     0.14500
C2233       C  0.81287930  0.63051191  0.75512335    -0.05500
C2234       C  0.80892453  0.61571604  0.78019108    -0.05500
C2235       C  0.81602398  0.58755327  0.78217773    -0.23600
C2236       C  0.82735247  0.57346546  0.75917326     0.18600
C2237       C  0.83105756  0.58785142  0.73375499     0.15800
C2238       C  0.82381017  0.61623360  0.73182610    -0.18700
C2239       C  0.84201427  0.57353303  0.71073257    -0.20500
C2240       C  0.85163125  0.54614470  0.71361785    -0.13000
C2241       C  0.85165736  0.53270523  0.73995586     0.03600
C2242       C  0.83630685  0.54563325  0.76161691    -0.25200
H2243       H  0.80037788  0.62594709  0.79846524     0.08700
H2244       H  0.81307296  0.57691098  0.80189028     0.12300
H2245       H  0.82668918  0.62713619  0.71224100     0.12200
H2246       H  0.84385004  0.58373606  0.69063723     0.12000
H2247       H  0.85984559  0.53602176  0.69519962     0.12500
H2248       H  0.83417917  0.53508603  0.78150639     0.14500
C2249       C  0.75608219  0.83398086  0.62910390    -0.05500
C2250       C  0.78279549  0.84255553  0.62162921    -0.05500
C2251       C  0.78796977  0.85213339  0.59476741    -0.23600
C2252       C  0.76666434  0.85262795  0.57465256     0.18600
C2253       C  0.73987600  0.84349786  0.58157356     0.15800
C2254       C  0.73449315  0.83473092  0.60908277    -0.18700
C2255       C  0.71909751  0.84349364  0.56088356    -0.20500
C2256       C  0.72482175  0.85275385  0.53371542    -0.13000
C2257       C  0.75137865  0.86287687  0.52641748     0.03600
C2258       C  0.77191809  0.86279340  0.54792782    -0.25200
H2259       H  0.79971773  0.84199317  0.63669619     0.08700
H2260       H  0.80873849  0.85892819  0.58965695     0.12300
H2261       H  0.71391982  0.82772101  0.61466135     0.12200
H2262       H  0.69826709  0.83678782  0.56580539     0.12000
H2263       H  0.70776127  0.85396963  0.51886921     0.12500
H2264       H  0.79205756  0.87192742  0.54507723     0.14500
C2265       C  0.61264702  0.75118078  0.81327349    -0.05500
C2266       C  0.60268578  0.72471594  0.82042519    -0.05500
C2267       C  0.57602397  0.72143205  0.83139072    -0.23600
C2268       C  0.55881312  0.74461119  0.83607039     0.18600
C2269       C  0.56801294  0.77107085  0.82794311     0.15800
C2270       C  0.59465149  0.77424489  0.81615191    -0.18700
C2271       C  0.55067712  0.79400057  0.83255886    -0.20500
C2272       C  0.52606653  0.79130626  0.84775744    -0.13000
C2273       C  0.51781161  0.76550205  0.85931216     0.03600
C2274       C  0.53329592  0.74188362  0.85016165    -0.25200
H2275       H  0.61575199  0.70641812  0.81799045     0.08700
H2276       H  0.56934817  0.70085674  0.83730344     0.12300
H2277       H  0.60180754  0.79474196  0.81053035     0.12200
H2278       H  0.55671963  0.81442320  0.82547338     0.12000
H2279       H  0.51470620  0.81022375  0.85065978     0.12500
H2280       H  0.52656448  0.72119945  0.85548109     0.14500
C2281       C  0.66198450  0.87833649  0.74602262    -0.05500
C2282       C  0.63862876  0.88075259  0.76346025    -0.05500
C2283       C  0.62667087  0.90639707  0.76922002    -0.23600
C2284       C  0.63745975  0.93047288  0.75743906     0.18600
C2285       C  0.65988422  0.92883073  0.73868243     0.15800
C2286       C  0.67228526  0.90253904  0.73301538    -0.18700
C2287       C  0.66896004  0.95349916  0.72598371    -0.20500
C2288       C  0.65564261  0.97918567  0.73170447    -0.13000
C2289       C  0.63387818  0.98119400  0.75141676     0.03600
C2290       C  0.62521580  0.95601822  0.76382948    -0.25200
H2291       H  0.62976915  0.86268725  0.77334336     0.08700
H2292       H  0.60899694  0.90738051  0.78318981     0.12300
H2293       H  0.69008625  0.90103029  0.71927812     0.12200
H2294       H  0.68569376  0.95280842  0.71091423     0.12000
H2295       H  0.66166713  0.99728059  0.71989845     0.12500
H2296       H  0.60724262  0.95549906  0.77730174     0.14500
C2297       C  0.75728515  0.63976271  0.96696717    -0.05500
C2298       C  0.77839959  0.63239788  0.94747911    -0.05500
C2299       C  0.77918407  0.64357201  0.92079411    -0.23600
C2300       C  0.75793599  0.66107983  0.91148572     0.18600
C2301       C  0.73616995  0.66865035  0.92976025     0.15800
C2302       C  0.73635685  0.65861967  0.95757546    -0.18700
C2303       C  0.71413334  0.68514899  0.91938123    -0.20500
C2304       C  0.71371563  0.69362598  0.89123649    -0.13000
C2305       C  0.73552651  0.68608019  0.87307763     0.03600
C2306       C  0.75769636  0.67002839  0.88364584    -0.25200
H2307       H  0.79390613  0.61656921  0.95147248     0.08700
H2308       H  0.79571149  0.63709692  0.90679281     0.12300
H2309       H  0.71930677  0.66400288  0.97136363     0.12200
H2310       H  0.69704415  0.69113078  0.93286872     0.12000
H2311       H  0.69641528  0.70620460  0.88374293     0.12500
H2312       H  0.77466425  0.66392070  0.87001692     0.14500
C2313       C  0.87135430  0.75652268  0.68124962    -0.05500
C2314       C  0.88612037  0.78145741  0.68367254    -0.05500
C2315       C  0.91394678  0.78300084  0.67545589    -0.23600
C2316       C  0.92745009  0.75989875  0.66366775     0.18600
C2317       C  0.91248942  0.73512008  0.65988707     0.15800
C2318       C  0.88479112  0.73327339  0.66934383    -0.18700
C2319       C  0.92519736  0.71295333  0.64588718    -0.20500
C2320       C  0.95205594  0.71545786  0.63518016    -0.13000
C2321       C  0.96827839  0.73953845  0.63991133     0.03600
C2322       C  0.95535427  0.76151303  0.65485303    -0.25200
H2323       H  0.87627329  0.79973557  0.69258915     0.08700
H2324       H  0.92480694  0.80241886  0.67802972     0.12300
H2325       H  0.87349762  0.71408905  0.66675760     0.12200
H2326       H  0.91387112  0.69399523  0.64205186     0.12000
H2327       H  0.95915306  0.69835210  0.62250002     0.12500
H2328       H  0.96663099  0.78055757  0.65832204     0.14500
loop_ 
_geom_bond_atom_site_label_1 
_geom_bond_atom_site_label_2 
_geom_bond_distance 
_geom_bond_site_symmetry_2 
_ccdc_geom_bond_type 
O1           Mg3   2.129       .  S
O1           Mg9   2.137       .  S
O1           C36   1.241       .  S
C2           O15   1.237       .  S
C2           O39   1.271       .  A
C2           H41   1.081       .  S
Mg3          O32   2.133       .  S
Mg3          O47   2.364       .  S
Mg3          O43   2.233       .  S
Mg3          O14   2.314       .  S
O4          Mg46   2.152       .  S
O4          Mg29   2.119       .  S
O4           C25   1.235       .  S
O5           C36   1.274       .  A
O5          Mg29   2.303       .  S
C6            O8   1.273       .  A
C6           O20   1.273       .  A
C6         C2249   1.470       .  S
O7           C35   1.273       .  A
O7           Mg9   2.307       .  S
O8          Mg40   2.270       .  S
Mg9          O15   2.129       .  S
Mg9          O23   2.243       .  S
Mg9          O11   2.312       .  S
C10          O48   1.276       .  A
C10          O16   1.282       .  A
C10        C2313   1.489       .  S
O11          C18   1.274       .  A
H12          C25   1.081       .  S
C13          O27   1.239       .  S
C13          O28   1.273       .  A
C13          H38   1.081       .  S
O14          C37   1.273       .  A
O15         Mg29   2.133       .  S
O16         Mg46   2.349       .  S
C17          O30   1.280       .  A
C17          O22   1.278       .  A
C17        C2233   1.491       .  S
C18          O45   1.273       .  A
C18        C2305   1.486       .  S
Mg19         O26   2.159       .  S
Mg19         O27   2.157       .  S
Mg19         O20   2.274       .  S
Mg19         O21   2.280       .  S
Mg19         O48   2.277       .  S
O21          C25   1.267       .  A
O22         Mg29   2.303       .  S
O23          C42   1.270       .  A
O24          C44   1.280       .  A
O24         Mg40   2.366       .  S
O26         Mg40   2.158       .  S
O26          C37   1.237       .  S
O27         Mg46   2.150       .  S
O28         Mg40   2.305       .  S
Mg29         O45   2.261       .  S
O30         Mg46   2.305       .  S
H31          C36   1.081       .  S
O32         Mg40   2.152       .  S
O32          C35   1.238       .  S
H33          C35   1.081       .  S
H34          C37   1.081       .  S
O39         Mg46   2.295       .  S
C42          O47   1.281       .  A
C42        C2265   1.492       .  S
O43          C44   1.273       .  A
C44        C2281   1.489       .  S
C49        C2185   1.553       .  S
C49        C2209   1.558       .  S
C49        C2217   1.558       .  S
C49        C2289   1.561   1_545  S
O50         Mg52   2.138       .  S
O50         Mg58   2.125       .  S
O50          C85   1.236       .  S
C51          O64   1.239       .  S
C51          O88   1.273       .  A
C51          H90   1.081       .  S
Mg52         O81   2.153       .  S
Mg52         O96   2.291       .  S
Mg52         O92   2.224       .  S
Mg52         O63   2.282       .  S
O53         Mg95   2.160       .  S
O53         Mg78   2.141       .  S
O53          C74   1.240       .  S
O54          C85   1.271       .  A
O54         Mg78   2.305       .  S
C55          O57   1.279       .  A
C55          O69   1.281       .  A
C55        C2113   1.493       .  S
O56          C84   1.275       .  A
O56         Mg58   2.316       .  S
O57         Mg89   2.297       .  S
Mg58         O64   2.140       .  S
Mg58         O72   2.266       .  S
Mg58         O60   2.347       .  S
C59          O97   1.271       .  A
C59          O65   1.279       .  A
C59        C2145   1.470       .  S
O60          C67   1.278       .  A
H61          C74   1.081       .  S
C62          O76   1.235       .  S
C62          O77   1.269       .  A
C62          H87   1.081       .  S
O63          C86   1.269       .  A
O64         Mg78   2.140       .  S
O65         Mg95   2.327       .  S
C66          O79   1.276       .  A
C66          O71   1.278       .  A
C66        C2121   1.485       .  S
C67          O94   1.275       .  A
C67        C2225   1.484       .  S
Mg68         O75   2.115       .  S
Mg68         O76   2.149       .  S
Mg68         O69   2.335       .  S
Mg68         O70   2.299       .  S
Mg68         O97   2.235       .  S
O70          C74   1.273       .  A
O71         Mg78   2.310       .  S
O72          C91   1.272       .  A
O73          C93   1.280       .  A
O73         Mg89   2.338       .  S
O75         Mg89   2.152       .  S
O75          C86   1.237       .  S
O76         Mg95   2.145       .  S
O77         Mg89   2.292       .  S
Mg78         O94   2.284       .  S
O79         Mg95   2.301       .  S
H80          C85   1.081       .  S
O81         Mg89   2.148       .  S
O81          C84   1.239       .  S
H82          C84   1.081       .  S
H83          C86   1.081       .  S
O88         Mg95   2.303       .  S
C91          O96   1.270       .  A
C91        C2169   1.470       .  S
O92          C93   1.267       .  A
C93        C2153   1.470       .  S
C98        C2073   1.559       .  S
C98        C2089   1.557       .  S
C98        C2105   1.563       .  S
C98        C2241   1.561       .  S
C99        C2033   1.557       .  S
C99        C2041   1.580       .  S
C99        C2065   1.571       .  S
C99        C2257   1.573       .  S
O100       Mg102   2.124       .  S
O100       Mg108   2.126       .  S
O100        C135   1.237       .  S
C101        O114   1.239       .  S
C101        O138   1.273       .  A
C101        H140   1.081       .  S
Mg102       O131   2.133       .  S
Mg102       O146   2.335       .  S
Mg102       O142   2.224       .  S
Mg102       O113   2.306       .  S
O103       Mg145   2.139       .  S
O103       Mg128   2.152       .  S
O103        C124   1.238       .  S
O104        C135   1.271       .  A
O104       Mg128   2.300       .  S
C105        O107   1.273       .  A
C105        O119   1.276       .  A
C105       C2057   1.475       .  S
O106        C134   1.272       .  A
O106       Mg108   2.306       .  S
O107       Mg139   2.242       .  S
Mg108       O114   2.138       .  S
Mg108       O122   2.254       .  S
Mg108       O110   2.318       .  S
C109        O147   1.274       .  A
C109        O115   1.274       .  A
C109       C1985   1.476       .  S
O110        C117   1.275       .  A
H111        C124   1.081       .  S
C112        O126   1.237       .  S
C112        O127   1.271       .  A
C112        H137   1.081       .  S
O113        C136   1.273       .  A
O114       Mg128   2.142       .  S
O115       Mg145   2.315       .  S
C116        O129   1.268       .  A
C116        O121   1.276       .  A
C116       C2001   1.477       .  S
C117        O144   1.274       .  A
C117       C1945   1.476       .  S
Mg118       O125   2.151       .  S
Mg118       O126   2.129       .  S
Mg118       O119   2.320       .  S
Mg118       O120   2.307       .  S
Mg118       O147   2.286       .  S
O120        C124   1.272       .  A
O121       Mg128   2.318       .  S
O122        C141   1.272       .  A
O123        C143   1.277       .  A
O123       Mg139   2.337       .  S
O125       Mg139   2.143       .  S
O125        C136   1.238       .  S
O126       Mg145   2.121       .  S
O127       Mg139   2.298       .  S
Mg128       O144   2.275       .  S
O129       Mg145   2.219       .  S
H130        C135   1.081       .  S
O131       Mg139   2.146       .  S
O131        C134   1.238       .  S
H132        C134   1.081       .  S
H133        C136   1.081       .  S
O138       Mg145   2.302       .  S
C141        O146   1.277       .  A
C141       C2009   1.483       .  S
O142        C143   1.270       .  A
C143       C1961   1.482       .  S
C148       C1913   1.556       .  S
C148       C1929   1.563       .  S
C148       C1953   1.552   1_556  S
C148       C2297   1.565       .  S
C149       C1865   1.564       .  S
C149       C1881   1.559       .  S
C149       C1897   1.568       .  S
C149       C1977   1.556       .  S
C150       C1809   1.552       .  S
C150       C1825   1.560   1_565  S
C150       C1841   1.557       .  S
C150       C1857   1.549       .  S
C151       C1761   1.548   1_556  S
C151       C1769   1.560       .  S
C151       C1793   1.557       .  S
C151       C2177   1.547       .  S
C152       C1697   1.555       .  S
C152       C1705   1.555       .  S
C152       C1729   1.562       .  S
C152       C1737   1.560       .  S
C153       C1649   1.552       .  S
C153       C1665   1.555       .  S
C153       C1673   1.566       .  S
C153       C2137   1.559       .  S
C154       C1593   1.568       .  S
C154       C1617   1.564       .  S
C154       C1625   1.560       .  S
C154       C1993   1.557       .  S
C155       C1537   1.560       .  S
C155       C1545   1.561       .  S
C155       C1561   1.564       .  S
C155       C1577   1.557       .  S
C156       C1481   1.553   1_655  S
C156       C1505   1.555       .  S
C156       C1513   1.558   1_655  S
C156       C2017   1.554       .  S
O157       Mg159   2.128       .  S
O157       Mg165   2.156       .  S
O157        C192   1.239       .  S
C158        O171   1.236       .  S
C158        O195   1.269       .  A
C158        H197   1.081       .  S
Mg159       O188   2.150       .  S
Mg159       O203   2.302       .  S
Mg159       O199   2.290       .  S
Mg159       O170   2.303       .  S
O160       Mg202   2.151       .  S
O160       Mg185   2.158       .  S
O160        C181   1.239       .  S
O161        C192   1.272       .  A
O161       Mg185   2.295       .  S
C162        O164   1.268       .  A
C162        O176   1.278       .  A
C162       C1473   1.471       .  S
O163        C191   1.269       .  A
O163       Mg165   2.289       .  S
O164       Mg196   2.220       .  S
Mg165       O171   2.135       .  S
Mg165       O179   2.304       .  S
Mg165       O167   2.287       .  S
C166        O204   1.274       .  A
C166        O172   1.274       .  A
C166       C1489   1.481       .  S
O167        C174   1.276       .  A
H168        C181   1.081       .  S
C169        O183   1.235       .  S
C169        O184   1.269       .  A
C169        H194   1.081       .  S
O170        C193   1.273       .  A
O171       Mg185   2.154       .  S
O172       Mg202   2.278       .  S
C173        O186   1.270       .  A
C173        O178   1.282       .  A
C173       C1441   1.481       .  S
C174        O201   1.278       .  A
C174       C1449   1.486       .  S
Mg175       O182   2.150       .  S
Mg175       O183   2.147       .  S
Mg175       O176   2.323       .  S
Mg175       O177   2.307       .  S
Mg175       O204   2.296       .  S
O177        C181   1.273       .  A
O178       Mg185   2.337       .  S
O179        C198   1.276       .  A
O180        C200   1.273       .  A
O180       Mg196   2.286       .  S
O182       Mg196   2.154       .  S
O182        C193   1.239       .  S
O183       Mg202   2.116       .  S
O184       Mg196   2.295       .  S
Mg185       O201   2.309       .  S
O186       Mg202   2.242       .  S
H187        C192   1.081       .  S
O188       Mg196   2.113       .  S
O188        C191   1.237       .  S
H189        C191   1.081       .  S
H190        C193   1.081       .  S
O195       Mg202   2.292       .  S
C198        O203   1.277       .  A
C198       C1873   1.493       .  S
O199        C200   1.273       .  A
C200       C1585   1.482       .  S
C205       C1385   1.555   1_554  S
C205       C1401   1.552       .  S
C205       C1417   1.559       .  S
C205       C1433   1.558       .  S
C206       C1345   1.562       .  S
C206       C1353   1.555       .  S
C206       C1369   1.554       .  S
C206       C2129   1.566       .  S
O207       Mg209   2.132       .  S
O207       Mg215   2.124       .  S
O207        C242   1.237       .  S
C208        O221   1.237       .  S
C208        O245   1.270       .  A
C208        H247   1.081       .  S
Mg209       O238   2.141       .  S
Mg209       O253   2.336       .  S
Mg209       O249   2.257       .  S
Mg209       O220   2.304       .  S
O210       Mg252   2.162       .  S
O210       Mg235   2.136       .  S
O210        C231   1.237       .  S
O211        C242   1.270       .  A
O211       Mg235   2.298       .  S
C212        O214   1.278       .  A
C212        O226   1.277       .  A
C212       C1321   1.492       .  S
O213        C241   1.275       .  A
O213       Mg215   2.317       .  S
O214       Mg246   2.313       .  S
Mg215       O221   2.118       .  S
Mg215       O229   2.255       .  S
Mg215       O217   2.342       .  S
C216        O254   1.273       .  A
C216        O222   1.277       .  A
C216       C1817   1.485       .  S
O217        C224   1.280       .  A
H218        C231   1.081       .  S
C219        O233   1.237       .  S
C219        O234   1.270       .  A
C219        H244   1.081       .  S
O220        C243   1.274       .  A
O221       Mg235   2.140       .  S
O222       Mg252   2.293       .  S
C223        O236   1.273       .  A
C223        O228   1.273       .  A
C223       C1297   1.472       .  S
C224        O251   1.272       .  A
C224       C1305   1.480       .  S
Mg225       O232   2.137       .  S
Mg225       O233   2.154       .  S
Mg225       O226   2.301       .  S
Mg225       O227   2.298       .  S
Mg225       O254   2.285       .  S
O227        C231   1.271       .  A
O228       Mg235   2.279       .  S
O229        C248   1.272       .  A
O230        C250   1.280       .  A
O230       Mg246   2.332       .  S
O232       Mg246   2.162       .  S
O232        C243   1.240       .  S
O233       Mg252   2.131       .  S
O234       Mg246   2.295       .  S
Mg235       O251   2.263       .  S
O236       Mg252   2.274       .  S
H237        C242   1.081       .  S
O238       Mg246   2.156       .  S
O238        C241   1.240       .  S
H239        C241   1.081       .  S
H240        C243   1.081       .  S
O245       Mg252   2.289       .  S
C248        O253   1.279       .  A
C248       C1713   1.480       .  S
O249        C250   1.272       .  A
C250       C1377   1.482       .  S
C255       C1257   1.549       .  S
C255       C1281   1.557       .  S
C255       C1289   1.550   1_655  S
C255       C2161   1.554       .  S
O256       Mg258   2.133       .  S
O256       Mg264   2.152       .  S
O256        C291   1.237       .  S
C257        O270   1.236       .  S
C257        O294   1.269       .  A
C257        H296   1.081       .  S
Mg258       O287   2.156       .  S
Mg258       O302   2.304       .  S
Mg258       O298   2.281       .  S
Mg258       O269   2.298       .  S
O259       Mg301   2.159       .  S
O259       Mg284   2.130       .  S
O259        C280   1.236       .  S
O260        C291   1.271       .  A
O260       Mg284   2.297       .  S
C261        O263   1.273       .  A
C261        O275   1.275       .  A
C261       C1641   1.473       .  S
O262        C290   1.271       .  A
O262       Mg264   2.295       .  S
O263       Mg295   2.263       .  S
Mg264       O270   2.124       .  S
Mg264       O278   2.266       .  S
Mg264       O266   2.294       .  S
C265        O303   1.275       .  A
C265        O271   1.273       .  A
C265       C1633   1.480       .  S
O266        C273   1.277       .  A
H267        C280   1.081       .  S
C268        O282   1.237       .  S
C268        O283   1.270       .  A
C268        H293   1.081       .  S
O269        C292   1.270       .  A
O270       Mg284   2.156       .  S
O271       Mg301   2.282       .  S
C272        O285   1.270       .  A
C272        O277   1.278       .  A
C272       C1249   1.471       .  S
C273        O300   1.274       .  A
C273       C1753   1.484       .  S
Mg274       O281   2.145       .  S
Mg274       O282   2.162       .  S
Mg274       O275   2.292       .  S
Mg274       O276   2.287       .  S
Mg274       O303   2.296       .  S
O276        C280   1.268       .  A
O277       Mg284   2.307       .  S
O278        C297   1.272       .  A
O279        C299   1.278       .  A
O279       Mg295   2.308       .  S
O281       Mg295   2.161       .  S
O281        C292   1.236       .  S
O282       Mg301   2.120       .  S
O283       Mg295   2.291       .  S
Mg284       O300   2.282       .  S
O285       Mg301   2.236       .  S
H286        C291   1.081       .  S
O287       Mg295   2.134       .  S
O287        C290   1.238       .  S
H288        C290   1.081       .  S
H289        C292   1.081       .  S
O294       Mg301   2.287       .  S
C297        O302   1.276       .  A
C297       C1209   1.475       .  S
O298        C299   1.274       .  A
C299       C1233   1.488       .  S
C304       C1185   1.550       .  S
C304       C1193   1.560       .  S
C304       C1217   1.551   1_565  S
C304       C1969   1.558       .  S
C305       C1129   1.551       .  S
C305       C1145   1.563       .  S
C305       C1161   1.557       .  S
C305       C1225   1.564   1_455  S
O306       Mg308   2.117       .  S
O306       Mg314   2.151       .  S
O306        C341   1.237       .  S
C307        O320   1.238       .  S
C307        O344   1.272       .  A
C307        H346   1.081       .  S
Mg308       O337   2.153       .  S
Mg308       O352   2.273       .  S
Mg308       O348   2.231       .  S
Mg308       O319   2.291       .  S
O309       Mg351   2.140       .  S
O309       Mg334   2.131       .  S
O309        C330   1.237       .  S
O310        C341   1.270       .  A
O310       Mg334   2.289       .  S
C311        O313   1.274       .  A
C311        O325   1.278       .  A
C311       C1105   1.473       .  S
O312        C340   1.271       .  A
O312       Mg314   2.295       .  S
O313       Mg345   2.275       .  S
Mg314       O320   2.139       .  S
Mg314       O328   2.295       .  S
Mg314       O316   2.335       .  S
C315        O353   1.275       .  A
C315        O321   1.277       .  A
C315       C1073   1.480       .  S
O316        C323   1.280       .  A
H317        C330   1.081       .  S
C318        O332   1.237       .  S
C318        O333   1.270       .  A
C318        H343   1.081       .  S
O319        C342   1.271       .  A
O320       Mg334   2.140       .  S
O321       Mg351   2.313       .  S
C322        O335   1.272       .  A
C322        O327   1.274       .  A
C322       C1169   1.466       .  S
C323        O350   1.271       .  A
C323       C1049   1.480       .  S
Mg324       O331   2.134       .  S
Mg324       O332   2.160       .  S
Mg324       O325   2.309       .  S
Mg324       O326   2.292       .  S
Mg324       O353   2.286       .  S
O326        C330   1.270       .  A
O327       Mg334   2.312       .  S
O328        C347   1.277       .  A
O329        C349   1.278       .  A
O329       Mg345   2.322       .  S
O331       Mg345   2.163       .  S
O331        C342   1.238       .  S
O332       Mg351   2.133       .  S
O333       Mg345   2.293       .  S
Mg334       O350   2.227       .  S
O335       Mg351   2.262       .  S
H336        C341   1.081       .  S
O337       Mg345   2.130       .  S
O337        C340   1.238       .  S
H338        C340   1.081       .  S
H339        C342   1.081       .  S
O344       Mg351   2.302       .  S
C347        O352   1.271       .  A
C347       C1121   1.483       .  S
O348        C349   1.268       .  A
C349       C1081   1.473       .  S
C354       C1017   1.559       .  S
C354       C1041   1.563       .  S
C354       C1113   1.561       .  S
C354       C1313   1.561   1_554  S
C355        C993   1.566       .  S
C355       C1001   1.555       .  S
C355       C1097   1.566   1_565  S
C355       C1457   1.561       .  S
O356       Mg358   2.117       .  S
O356       Mg364   2.135   1_545  S
O356        C391   1.236       .  S
C357        O370   1.237   1_455  S
C357        O394   1.270       .  A
C357        H396   1.081       .  S
Mg358       O387   2.166   1_655  S
Mg358       O402   2.299       .  S
Mg358       O398   2.249       .  S
Mg358       O369   2.287       .  S
O359       Mg401   2.144       .  S
O359       Mg384   2.153   1_455  S
O359        C380   1.238   1_455  S
O360        C391   1.269   1_565  A
O360       Mg384   2.294       .  S
C361        O363   1.275       .  A
C361        O375   1.278       .  A
C361        C969   1.481       .  S
O362        C390   1.275   1_565  A
O362       Mg364   2.304   1_455  S
O363       Mg395   2.280       .  S
Mg364       O370   2.140       .  S
Mg364       O378   2.270       .  S
Mg364       O366   2.315       .  S
C365        O403   1.270   1_565  A
C365        O371   1.275       .  A
C365       C1833   1.469       .  S
O366        C373   1.276       .  A
H367        C380   1.081       .  S
C368        O382   1.239       .  S
C368        O383   1.275   1_565  A
C368        H393   1.081       .  S
O369        C392   1.268   1_655  A
O370       Mg384   2.146       .  S
O371       Mg401   2.299       .  S
C372        O385   1.275       .  A
C372        O377   1.279   1_455  A
C372        C953   1.491       .  S
C373        O400   1.276       .  A
C373       C2025   1.474       .  S
Mg374       O381   2.123       .  S
Mg374       O382   2.160   1_545  S
Mg374       O375   2.343       .  S
Mg374       O376   2.305       .  S
Mg374       O403   2.252       .  S
O376        C380   1.272   1_445  A
O377       Mg384   2.349       .  S
O378        C397   1.271   1_565  A
O379        C399   1.280       .  A
O379       Mg395   2.339       .  S
O381       Mg395   2.130       .  S
O381        C392   1.235       .  S
O382       Mg401   2.161       .  S
O383       Mg395   2.316       .  S
Mg384       O400   2.284       .  S
O385       Mg401   2.270       .  S
H386        C391   1.081       .  S
O387       Mg395   2.150       .  S
O387        C390   1.242       .  S
H388        C390   1.081       .  S
H389        C392   1.081       .  S
O394       Mg401   2.296       .  S
C397        O402   1.275       .  A
C397       C1201   1.475       .  S
O398        C399   1.272   1_655  A
C399       C1153   1.478       .  S
O404       Mg406   2.139   1_545  S
O404       Mg412   2.155       .  S
O404        C439   1.237       .  S
C405        O418   1.237       .  S
C405        O442   1.270   1_545  A
C405        H444   1.081       .  S
Mg406       O435   2.156       .  S
Mg406       O450   2.291       .  S
Mg406       O446   2.263       .  S
Mg406       O417   2.289   1_556  S
O407       Mg449   2.157   1_545  S
O407       Mg432   2.137       .  S
O407        C428   1.239       .  S
O408        C439   1.272   1_554  A
O408       Mg432   2.302   1_455  S
C409        O411   1.273       .  A
C409        O423   1.275       .  A
C409       C1521   1.470       .  S
O410        C438   1.272       .  A
O410       Mg412   2.298   1_565  S
O411       Mg443   2.278       .  S
Mg412       O418   2.122   1_455  S
Mg412       O426   2.267       .  S
Mg412       O414   2.297       .  S
C413        O451   1.269       .  A
C413        O419   1.278       .  A
C413       C1177   1.472       .  S
O414        C421   1.277   1_455  A
H415        C428   1.081       .  S
C416        O430   1.236       .  S
C416        O431   1.270       .  A
C416        H441   1.081       .  S
O417        C440   1.269       .  A
O418       Mg432   2.152   1_556  S
O419       Mg449   2.310       .  S
C420        O433   1.275       .  A
C420        O425   1.278       .  A
C420       C1785   1.481       .  S
C421        O448   1.275       .  A
C421       C1273   1.487       .  S
Mg422       O429   2.113       .  S
Mg422       O430   2.146   1_455  S
Mg422       O423   2.314       .  S
Mg422       O424   2.299   1_565  S
Mg422       O451   2.230   1_455  S
O424        C428   1.273   1_455  A
O425       Mg432   2.317       .  S
O426        C445   1.272       .  A
O427        C447   1.274   1_554  A
O427       Mg443   2.302       .  S
O429       Mg443   2.139       .  S
O429        C440   1.236       .  S
O430       Mg449   2.136       .  S
O431       Mg443   2.294   1_655  S
Mg432       O448   2.289   1_554  S
O433       Mg449   2.275   1_545  S
H434        C439   1.081       .  S
O435       Mg443   2.141   1_556  S
O435        C438   1.238       .  S
H436        C438   1.081       .  S
H437        C440   1.081       .  S
O442       Mg449   2.292   1_556  S
C445        O450   1.275   1_545  A
C445       C1849   1.477       .  S
O446        C447   1.272       .  A
C447       C1425   1.463       .  S
O452       Mg454   2.149       .  S
O452       Mg460   2.143       .  S
O452        C487   1.239       .  S
C453        O466   1.238       .  S
C453        O490   1.273       .  A
C453        H492   1.081       .  S
Mg454       O483   2.155       .  S
Mg454       O498   2.352       .  S
Mg454       O494   2.298       .  S
Mg454       O465   2.299       .  S
O455       Mg497   2.130       .  S
O455       Mg480   2.138       .  S
O455        C476   1.237       .  S
O456        C487   1.274   1_545  A
O456       Mg480   2.311       .  S
C457        O459   1.273   1_545  A
C457        O471   1.274       .  A
C457       C2201   1.471       .  S
O458        C486   1.272       .  A
O458       Mg460   2.298       .  S
O459       Mg491   2.277       .  S
Mg460       O466   2.146       .  S
Mg460       O474   2.257       .  S
Mg460       O462   2.343       .  S
C461        O499   1.273       .  A
C461        O467   1.276       .  A
C461       C1361   1.475       .  S
O462        C469   1.278       .  A
H463        C476   1.081       .  S
C464        O478   1.238   1_565  S
C464        O479   1.271       .  A
C464        H489   1.081       .  S
O465        C488   1.272   1_565  A
O466       Mg480   2.134   1_565  S
O467       Mg497   2.323       .  S
C468        O481   1.271       .  A
C468        O473   1.280       .  A
C468        C945   1.492       .  S
C469        O496   1.273   1_565  A
C469       C1009   1.476       .  S
Mg470       O477   2.139       .  S
Mg470       O478   2.140       .  S
Mg470       O471   2.296       .  S
Mg470       O472   2.303       .  S
Mg470       O499   2.277       .  S
O472        C476   1.271       .  A
O473       Mg480   2.361       .  S
O474        C493   1.273       .  A
O475        C495   1.277       .  A
O475       Mg491   2.313       .  S
O477       Mg491   2.162   1_545  S
O477        C488   1.238       .  S
O478       Mg497   2.131       .  S
O479       Mg491   2.294       .  S
Mg480       O496   2.255       .  S
O481       Mg497   2.232       .  S
H482        C487   1.081       .  S
O483       Mg491   2.141       .  S
O483        C486   1.239       .  S
H484        C486   1.081       .  S
H485        C488   1.081       .  S
O490       Mg497   2.303   1_565  S
C493        O498   1.282       .  A
C493       C1905   1.480       .  S
O494        C495   1.278       .  A
C495       C2049   1.489       .  S
C500        C937   1.569       .  S
C500        C977   1.561       .  S
C500       C1065   1.571       .  S
C500       C1329   1.566       .  S
O501       Mg503   2.098   1_556  S
O501       Mg509   2.144       .  S
O501        C536   1.235       .  S
C502        O515   1.238       .  S
C502        O539   1.271   1_556  A
C502        H541   1.081   1_556  S
Mg503       O532   2.156       .  S
Mg503       O547   2.315       .  S
Mg503       O543   2.217       .  S
Mg503       O514   2.298       .  S
O504       Mg546   2.160   1_556  S
O504       Mg529   2.140       .  S
O504        C525   1.239   1_565  S
O505        C536   1.267       .  A
O505       Mg529   2.277   1_545  S
C506        O508   1.277       .  A
C506        O520   1.279       .  A
C506        C985   1.493       .  S
O507        C535   1.271       .  A
O507       Mg509   2.297   1_554  S
O508       Mg540   2.301       .  S
Mg509       O515   2.137   1_545  S
Mg509       O523   2.294       .  S
Mg509       O511   2.308       .  S
C510        O548   1.273       .  A
C510        O516   1.277       .  A
C510       C1409   1.478       .  S
O511        C518   1.278   1_545  A
H512        C525   1.081       .  S
C513        O527   1.238       .  S
C513        O528   1.273   1_565  A
C513        H538   1.081       .  S
O514        C537   1.271       .  A
O515       Mg529   2.167       .  S
O516       Mg546   2.304       .  S
C517        O530   1.273       .  A
C517        O522   1.274       .  A
C517        C913   1.470       .  S
C518        O545   1.274       .  A
C518       C2193   1.478       .  S
Mg519       O526   2.127       .  S
Mg519       O527   2.151   1_545  S
Mg519       O520   2.328       .  S
Mg519       O521   2.301   1_554  S
Mg519       O548   2.269   1_545  S
O521        C525   1.272       .  A
O522       Mg529   2.287       .  S
O523        C542   1.275       .  A
O524        C544   1.278       .  A
O524       Mg540   2.311       .  S
O526       Mg540   2.141       .  S
O526        C537   1.238       .  S
O527       Mg546   2.137       .  S
O528       Mg540   2.304       .  S
Mg529       O545   2.272       .  S
O530       Mg546   2.285   1_556  S
H531        C536   1.081       .  S
O532       Mg540   2.149       .  S
O532        C535   1.238       .  S
H533        C535   1.081       .  S
H534        C537   1.081       .  S
O539       Mg546   2.291       .  S
C542        O547   1.277   1_556  A
C542       C1777   1.479       .  S
O543        C544   1.268       .  A
C544        C921   1.463       .  S
C549        C897   1.561       .  S
C549        C929   1.545       .  S
C549       C1089   1.557       .  S
C549       C1241   1.550       .  S
O550       Mg552   2.130   1_556  S
O550       Mg558   2.156       .  S
O550        C585   1.238       .  S
C551        O564   1.241       .  S
C551        O588   1.276       .  A
C551        H590   1.081       .  S
Mg552       O581   2.154       .  S
Mg552       O596   2.309       .  S
Mg552       O592   2.304       .  S
Mg552       O563   2.291       .  S
O553       Mg595   2.130       .  S
O553       Mg578   2.133       .  S
O553        C574   1.237       .  S
O554        C585   1.271       .  A
O554       Mg578   2.298       .  S
C555        O557   1.269       .  A
C555        O569   1.279       .  A
C555        C889   1.487       .  S
O556        C584   1.270       .  A
O556       Mg558   2.287       .  S
O557       Mg589   2.209       .  S
Mg558       O564   2.165       .  S
Mg558       O572   2.288       .  S
Mg558       O560   2.333       .  S
C559        O597   1.275       .  A
C559        O565   1.281       .  A
C559       C1033   1.489       .  S
O560        C567   1.277       .  A
H561        C574   1.081       .  S
C562        O576   1.238       .  S
C562        O577   1.271       .  A
C562        H587   1.081       .  S
O563        C586   1.270       .  A
O564       Mg578   2.139       .  S
O565       Mg595   2.346       .  S
C566        O579   1.274       .  A
C566        O571   1.277       .  A
C566       C1721   1.488       .  S
C567        O594   1.273       .  A
C567        C881   1.484       .  S
Mg568       O575   2.142       .  S
Mg568       O576   2.144   1_554  S
Mg568       O569   2.360       .  S
Mg568       O570   2.305   1_554  S
Mg568       O597   2.260   1_554  S
O570        C574   1.272       .  A
O571       Mg578   2.325       .  S
O572        C591   1.276       .  A
O573        C593   1.275       .  A
O573       Mg589   2.305       .  S
O575       Mg589   2.139       .  S
O575        C586   1.237       .  S
O576       Mg595   2.133       .  S
O577       Mg589   2.292   1_556  S
Mg578       O594   2.246       .  S
O579       Mg595   2.270       .  S
H580        C585   1.081   1_554  S
O581       Mg589   2.115       .  S
O581        C584   1.238   1_554  S
H582        C584   1.081       .  S
H583        C586   1.081       .  S
O588       Mg595   2.318       .  S
C591        O596   1.277   1_556  A
C591       C1937   1.473       .  S
O592        C593   1.276       .  A
C593       C1601   1.487       .  S
O598       Mg600   2.164       .  S
O598       Mg606   2.156   1_655  S
O598        C633   1.239       .  S
C599        O612   1.236       .  S
C599        O636   1.270       .  A
C599        H638   1.081       .  S
Mg600       O629   2.149       .  S
Mg600       O644   2.344       .  S
Mg600       O640   2.334       .  S
Mg600       O611   2.297       .  S
O601       Mg643   2.146       .  S
O601       Mg626   2.137       .  S
O601        C622   1.236       .  S
O602        C633   1.273       .  A
O602       Mg626   2.303   1_655  S
C603        O605   1.271       .  A
C603        O617   1.271       .  A
C603       C1137   1.474       .  S
O604        C632   1.268   1_455  A
O604       Mg606   2.284       .  S
O605       Mg637   2.278       .  S
Mg606       O612   2.139       .  S
Mg606       O620   2.239   1_455  S
Mg606       O608   2.291       .  S
C607        O645   1.268       .  A
C607        O613   1.278       .  A
C607        C857   1.475       .  S
O608        C615   1.274       .  A
H609        C622   1.081       .  S
C610        O624   1.240       .  S
C610        O625   1.274       .  A
C610        H635   1.081       .  S
O611        C634   1.271       .  A
O612       Mg626   2.151       .  S
O613       Mg643   2.330       .  S
C614        O627   1.275       .  A
C614        O619   1.276       .  A
C614       C1569   1.473       .  S
C615        O642   1.272       .  A
C615        C841   1.479       .  S
Mg616       O623   2.121       .  S
Mg616       O624   2.150   1_655  S
Mg616       O617   2.270       .  S
Mg616       O618   2.301       .  S
Mg616       O645   2.234   1_655  S
O618        C622   1.270   1_655  A
O619       Mg626   2.320       .  S
O620        C639   1.272       .  A
O621        C641   1.277       .  A
O621       Mg637   2.295       .  S
O623       Mg637   2.152       .  S
O623        C634   1.237       .  S
O624       Mg643   2.154       .  S
O625       Mg637   2.308   1_455  S
Mg626       O642   2.275       .  S
O627       Mg643   2.286       .  S
H628        C633   1.081       .  S
O629       Mg637   2.110       .  S
O629        C632   1.236       .  S
H630        C632   1.081       .  S
H631        C634   1.081       .  S
O636       Mg643   2.302       .  S
C639        O644   1.282       .  A
C639       C2081   1.476       .  S
O640        C641   1.280       .  A
C641       C1681   1.497       .  S
O646       Mg648   2.118   1_554  S
O646       Mg654   2.132       .  S
O646        C681   1.238       .  S
C647        O660   1.238       .  S
C647        O684   1.271   1_554  A
C647        H686   1.081       .  S
Mg648       O677   2.142       .  S
Mg648       O692   2.326       .  S
Mg648       O688   2.257       .  S
Mg648       O659   2.310   1_455  S
O649       Mg691   2.151   1_554  S
O649       Mg674   2.116   1_655  S
O649        C670   1.237       .  S
O650        C681   1.271       .  A
O650       Mg674   2.298       .  S
C651        O653   1.270       .  A
C651        O665   1.281       .  A
C651       C2097   1.475       .  S
O652        C680   1.273       .  A
O652       Mg654   2.304   1_556  S
O653       Mg685   2.231   1_655  S
Mg654       O660   2.131       .  S
Mg654       O668   2.268       .  S
Mg654       O656   2.300       .  S
C655        O693   1.278       .  A
C655        O661   1.275       .  A
C655       C1921   1.480       .  S
O656        C663   1.276       .  A
H657        C670   1.081       .  S
C658        O672   1.237       .  S
C658        O673   1.270   1_655  A
C658        H683   1.081       .  S
O659        C682   1.274       .  A
O660       Mg674   2.145       .  S
O661       Mg691   2.288       .  S
C662        O675   1.273       .  A
C662        O667   1.276   1_655  A
C662       C1497   1.477       .  S
C663        O690   1.272       .  A
C663        C825   1.477       .  S
Mg664       O671   2.159       .  S
Mg664       O672   2.157       .  S
Mg664       O665   2.349       .  S
Mg664       O666   2.288   1_556  S
Mg664       O693   2.304       .  S
O666        C670   1.269       .  A
O667       Mg674   2.301       .  S
O668        C687   1.273       .  A
O669        C689   1.275       .  A
O669       Mg685   2.302       .  S
O671       Mg685   2.145   1_655  S
O671        C682   1.239       .  S
O672       Mg691   2.129       .  S
O673       Mg685   2.294       .  S
Mg674       O690   2.253       .  S
O675       Mg691   2.277   1_554  S
H676        C681   1.081       .  S
O677       Mg685   2.127       .  S
O677        C680   1.238       .  S
H678        C680   1.081       .  S
H679        C682   1.081       .  S
O684       Mg691   2.290   1_455  S
C687        O692   1.278   1_554  A
C687       C1025   1.488       .  S
O688        C689   1.271       .  A
C689       C1265   1.476       .  S
C694        C833   1.550       .  S
C694        C865   1.556       .  S
C694       C1057   1.554       .  S
C694       C1465   1.547       .  S
O695       Mg697   2.143       .  S
O695       Mg703   2.156       .  S
O695        C730   1.237       .  S
C696        O709   1.237       .  S
C696        O733   1.272       .  A
C696        H735   1.081       .  S
Mg697       O726   2.162       .  S
Mg697       O741   2.308       .  S
Mg697       O737   2.264       .  S
Mg697       O708   2.289       .  S
O698       Mg740   2.160       .  S
O698       Mg723   2.158       .  S
O698        C719   1.238       .  S
O699        C730   1.270       .  A
O699       Mg723   2.296       .  S
C700        O702   1.277       .  A
C700        O714   1.275       .  A
C700       C1337   1.493       .  S
O701        C729   1.272       .  A
O701       Mg703   2.301       .  S
O702       Mg734   2.325       .  S
Mg703       O709   2.159       .  S
Mg703       O717   2.312       .  S
Mg703       O705   2.334       .  S
C704        O742   1.271       .  A
C704        O710   1.281       .  A
C704       C1745   1.489       .  S
O705        C712   1.281       .  A
H706        C719   1.081       .  S
C707        O721   1.239       .  S
C707        O722   1.274       .  A
C707        H732   1.081       .  S
O708        C731   1.269       .  A
O709       Mg723   2.170       .  S
O710       Mg740   2.362       .  S
C711        O724   1.275       .  A
C711        O716   1.281       .  A
C711       C1553   1.486       .  S
C712        O739   1.277       .  A
C712       C1889   1.490       .  S
Mg713       O720   2.125       .  S
Mg713       O721   2.139       .  S
Mg713       O714   2.293       .  S
Mg713       O715   2.304       .  S
Mg713       O742   2.248       .  S
O715        C719   1.273       .  A
O716       Mg723   2.340       .  S
O717        C736   1.278       .  A
O718        C738   1.281       .  A
O718       Mg734   2.334       .  S
O720       Mg734   2.153       .  S
O720        C731   1.236       .  S
O721       Mg740   2.157       .  S
O722       Mg734   2.312       .  S
Mg723       O739   2.300       .  S
O724       Mg740   2.281       .  S
H725        C730   1.081       .  S
O726       Mg734   2.157       .  S
O726        C729   1.238       .  S
H727        C729   1.081       .  S
H728        C731   1.081       .  S
O733       Mg740   2.302       .  S
C736        O741   1.277       .  A
C736       C1609   1.490       .  S
O737        C738   1.274       .  A
C738       C1657   1.481       .  S
C743        C809   1.560   1_655  S
C743        C849   1.560   1_655  S
C743        C961   1.569       .  S
C743       C2321   1.569       .  S
O744       Mg746   2.123       .  S
O744       Mg752   2.144       .  S
O744        C779   1.237       .  S
C745        O758   1.240       .  S
C745        O782   1.274       .  A
C745        H784   1.081       .  S
Mg746       O775   2.161       .  S
Mg746       O790   2.311       .  S
Mg746       O786   2.234       .  S
Mg746       O757   2.291       .  S
O747       Mg789   2.137       .  S
O747       Mg772   2.139       .  S
O747        C768   1.238       .  S
O748        C779   1.270       .  A
O748       Mg772   2.294       .  S
C749        O751   1.280       .  A
C749        O763   1.277       .  A
C749        C817   1.487       .  S
O750        C778   1.273       .  A
O750       Mg752   2.307       .  S
O751       Mg783   2.333       .  S
Mg752       O758   2.129       .  S
Mg752       O766   2.271       .  S
Mg752       O754   2.332       .  S
C753        O791   1.276       .  A
C753        O759   1.277       .  A
C753       C1529   1.494       .  S
O754        C761   1.280       .  A
H755        C768   1.081       .  S
C756        O770   1.238       .  S
C756        O771   1.271       .  A
C756        H781   1.081       .  S
O757        C780   1.270       .  A
O758       Mg772   2.145       .  S
O759       Mg789   2.315       .  S
C760        O773   1.271       .  A
C760        O765   1.275       .  A
C760       C1689   1.476       .  S
C761        O788   1.274       .  A
C761        C801   1.490       .  S
Mg762       O769   2.132       .  S
Mg762       O770   2.145       .  S
Mg762       O763   2.296       .  S
Mg762       O764   2.299       .  S
Mg762       O791   2.301       .  S
O764        C768   1.271       .  A
O765       Mg772   2.302       .  S
O766        C785   1.273       .  A
O767        C787   1.284       .  A
O767       Mg783   2.350       .  S
O769       Mg783   2.161       .  S
O769        C780   1.237       .  S
O770       Mg789   2.127       .  S
O771       Mg783   2.296       .  S
Mg772       O788   2.272       .  S
O773       Mg789   2.250       .  S
H774        C779   1.081       .  S
O775       Mg783   2.166       .  S
O775        C778   1.239       .  S
H776        C778   1.081       .  S
H777        C780   1.081       .  S
O782       Mg789   2.306       .  S
C785        O790   1.277       .  A
C785       C1393   1.481       .  S
O786        C787   1.270       .  A
C787       C1801   1.480       .  S
C792        C793   1.565       .  S
C792        C873   1.573       .  S
C792        C905   1.569       .  S
C792       C2273   1.586       .  S
C793        C794   1.423       .  A
C793        C798   1.418       .  A
C794        H803   1.080       .  S
C794        C795   1.390       .  A
C795        H804   1.084       .  S
C795        C796   1.392       .  A
C796        C802   1.404       .  A
C796        C797   1.412       .  A
C797        C799   1.404       .  A
C797        C798   1.415       .  A
C798        H805   1.082       .  S
C799        H806   1.083       .  S
C799        C800   1.404       .  A
C800        H807   1.083       .  S
C800        C801   1.410       .  A
C801        C802   1.404       .  A
C802        H808   1.084       .  S
C809        C810   1.413       .  A
C809        C814   1.414       .  A
C810        H819   1.081   1_455  S
C810        C811   1.413       .  A
C811        H820   1.083       .  S
C811        C812   1.410       .  A
C812        C818   1.421       .  A
C812        C813   1.411       .  A
C813        C815   1.398       .  A
C813        C814   1.398       .  A
C814        H821   1.085       .  S
C815        H822   1.084       .  S
C815        C816   1.390       .  A
C816        H823   1.084       .  S
C816        C817   1.403       .  A
C817        C818   1.416       .  A
C818        H824   1.083       .  S
C825        C826   1.406       .  A
C825        C830   1.406       .  A
C826        H835   1.083       .  S
C826        C827   1.395       .  A
C827        H836   1.084       .  S
C827        C828   1.401       .  A
C828        C834   1.400       .  A
C828        C829   1.412       .  A
C829        C831   1.399       .  A
C829        C830   1.402       .  A
C830        H837   1.084       .  S
C831        H838   1.084       .  S
C831        C832   1.396       .  A
C832        H839   1.082       .  S
C832        C833   1.415       .  A
C833        C834   1.411       .  A
C834        H840   1.079       .  S
C841        C842   1.405       .  A
C841        C846   1.407       .  A
C842        H851   1.083       .  S
C842        C843   1.395       .  A
C843        H852   1.084       .  S
C843        C844   1.401       .  A
C844        C850   1.400       .  A
C844        C845   1.410       .  A
C845        C847   1.401       .  A
C845        C846   1.408       .  A
C846        H853   1.084       .  S
C847        H854   1.084       .  S
C847        C848   1.401       .  A
C848        H855   1.078       .  S
C848        C849   1.415       .  A
C849        C850   1.416       .  A
C850        H856   1.085       .  S
C857        C858   1.408       .  A
C857        C862   1.400       .  A
C858        H867   1.083       .  S
C858        C859   1.399       .  A
C859        H868   1.084       .  S
C859        C860   1.402       .  A
C860        C866   1.406       .  A
C860        C861   1.413       .  A
C861        C863   1.394       .  A
C861        C862   1.401       .  A
C862        H869   1.085       .  S
C863        H870   1.084       .  S
C863        C864   1.391       .  A
C864        H871   1.080       .  S
C864        C865   1.417       .  A
C865        C866   1.413       .  A
C866        H872   1.084       .  S
C873        C874   1.418       .  A
C873        C878   1.416       .  A
C874        H883   1.083       .  S
C874        C875   1.407       .  A
C875        H884   1.083       .  S
C875        C876   1.405       .  A
C876        C882   1.413       .  A
C876        C877   1.409       .  A
C877        C879   1.397       .  A
C877        C878   1.395       .  A
C878        H885   1.079       .  S
C879        H886   1.084       .  S
C879        C880   1.388       .  A
C880        H887   1.083       .  S
C880        C881   1.407       .  A
C881        C882   1.413       .  A
C882        H888   1.084       .  S
C889        C890   1.408       .  A
C889        C894   1.415       .  A
C890        H899   1.083       .  S
C890        C891   1.382       .  A
C891        H900   1.084       .  S
C891        C892   1.394       .  A
C892        C898   1.392       .  A
C892        C893   1.409       .  A
C893        C895   1.407       .  A
C893        C894   1.418       .  A
C894        H901   1.083       .  S
C895        H902   1.083       .  S
C895        C896   1.410       .  A
C896        H903   1.083       .  S
C896        C897   1.415       .  A
C897        C898   1.414       .  A
C898        H904   1.079       .  S
C905        C906   1.418       .  A
C905        C910   1.416       .  A
C906        H915   1.078       .  S
C906        C907   1.408       .  A
C907        H916   1.083       .  S
C907        C908   1.405       .  A
C908        C914   1.413       .  A
C908        C909   1.408       .  A
C909        C911   1.399       .  A
C909        C910   1.393       .  A
C910        H917   1.083       .  S
C911        H918   1.084       .  S
C911        C912   1.389       .  A
C912        H919   1.084       .  S
C912        C913   1.400       .  A
C913        C914   1.410       .  A
C914        H920   1.084       .  S
C921        C922   1.406       .  A
C921        C926   1.393       .  A
C922        H931   1.083       .  S
C922        C923   1.397       .  A
C923        H932   1.083       .  S
C923        C924   1.401       .  A
C924        C930   1.406       .  A
C924        C925   1.417       .  A
C925        C927   1.389       .  A
C925        C926   1.395       .  A
C926        H933   1.085       .  S
C927        H934   1.084       .  S
C927        C928   1.382       .  A
C928        H935   1.083       .  S
C928        C929   1.419       .  A
C929        C930   1.408       .  A
C930        H936   1.081       .  S
C937        C938   1.420       .  A
C937        C942   1.424       .  A
C938        H947   1.076       .  S
C938        C939   1.387       .  A
C939        H948   1.084       .  S
C939        C940   1.391       .  A
C940        C946   1.398       .  A
C940        C941   1.409       .  A
C941        C943   1.409       .  A
C941        C942   1.417       .  A
C942        H949   1.084       .  S
C943        H950   1.083       .  S
C943        C944   1.411       .  A
C944        H951   1.083       .  S
C944        C945   1.408       .  A
C945        C946   1.406       .  A
C946        H952   1.084       .  S
C953        C954   1.406       .  A
C953        C958   1.415   1_455  A
C954        H963   1.083       .  S
C954        C955   1.392       .  A
C955        H964   1.084       .  S
C955        C956   1.399       .  A
C956        C962   1.400       .  A
C956        C957   1.409   1_455  A
C957        C959   1.406       .  A
C957        C958   1.417       .  A
C958        H965   1.084       .  S
C959        H966   1.083       .  S
C959        C960   1.408       .  A
C960        H967   1.083       .  S
C960        C961   1.415       .  A
C961        C962   1.419   1_655  A
C962        H968   1.080       .  S
C969        C970   1.402       .  A
C969        C974   1.410       .  A
C970        H979   1.083       .  S
C970        C971   1.396       .  A
C971        H980   1.084       .  S
C971        C972   1.402       .  A
C972        C978   1.402       .  A
C972        C973   1.411       .  A
C973        C975   1.405       .  A
C973        C974   1.414       .  A
C974        H981   1.084       .  S
C975        H982   1.083       .  S
C975        C976   1.406       .  A
C976        H983   1.080       .  S
C976        C977   1.414       .  A
C977        C978   1.416       .  A
C978        H984   1.085       .  S
C985        C986   1.409       .  A
C985        C990   1.406       .  A
C986        H995   1.083       .  S
C986        C987   1.407       .  A
C987        H996   1.083       .  S
C987        C988   1.406       .  A
C988        C994   1.417       .  A
C988        C989   1.411       .  A
C989        C991   1.393   1_545  A
C989        C990   1.406       .  A
C990        H997   1.084   1_545  S
C991        H998   1.084       .  S
C991        C992   1.392       .  A
C992        H999   1.077       .  S
C992        C993   1.421       .  A
C993        C994   1.420   1_565  A
C994       H1000   1.083       .  S
C1001      C1002   1.417       .  A
C1001      C1006   1.416       .  A
C1002      H1011   1.084       .  S
C1002      C1003   1.385       .  A
C1003      H1012   1.084       .  S
C1003      C1004   1.391       .  A
C1004      C1010   1.399       .  A
C1004      C1005   1.415       .  A
C1005      C1007   1.408       .  A
C1005      C1006   1.418       .  A
C1006      H1013   1.082       .  S
C1007      H1014   1.083       .  S
C1007      C1008   1.408       .  A
C1008      H1015   1.083       .  S
C1008      C1009   1.406       .  A
C1009      C1010   1.397       .  A
C1010      H1016   1.085       .  S
C1017      C1018   1.415       .  A
C1017      C1022   1.415   1_554  A
C1018      H1027   1.083       .  S
C1018      C1019   1.397       .  A
C1019      H1028   1.084       .  S
C1019      C1020   1.399       .  A
C1020      C1026   1.406       .  A
C1020      C1021   1.411   1_554  A
C1021      C1023   1.403       .  A
C1021      C1022   1.407       .  A
C1022      H1029   1.079       .  S
C1023      H1030   1.084       .  S
C1023      C1024   1.400       .  A
C1024      H1031   1.083       .  S
C1024      C1025   1.408   1_556  A
C1025      C1026   1.409       .  A
C1026      H1032   1.084       .  S
C1033      C1034   1.407       .  A
C1033      C1038   1.409   1_556  A
C1034      H1043   1.083       .  S
C1034      C1035   1.403       .  A
C1035      H1044   1.083       .  S
C1035      C1036   1.405       .  A
C1036      C1042   1.409       .  A
C1036      C1037   1.410   1_556  A
C1037      C1039   1.399       .  A
C1037      C1038   1.404       .  A
C1038      H1045   1.084       .  S
C1039      H1046   1.084       .  S
C1039      C1040   1.397       .  A
C1040      H1047   1.079       .  S
C1040      C1041   1.414       .  A
C1041      C1042   1.418   1_554  A
C1042      H1048   1.084       .  S
C1049      C1050   1.408       .  A
C1049      C1054   1.406       .  A
C1050      H1059   1.083       .  S
C1050      C1051   1.392       .  A
C1051      H1060   1.084       .  S
C1051      C1052   1.398       .  A
C1052      C1058   1.399       .  A
C1052      C1053   1.412       .  A
C1053      C1055   1.399       .  A
C1053      C1054   1.406       .  A
C1054      H1061   1.084       .  S
C1055      H1062   1.084       .  S
C1055      C1056   1.397       .  A
C1056      H1063   1.083       .  S
C1056      C1057   1.415       .  A
C1057      C1058   1.413       .  A
C1058      H1064   1.080       .  S
C1065      C1066   1.417       .  A
C1065      C1070   1.422       .  A
C1066      H1075   1.083       .  S
C1066      C1067   1.403       .  A
C1067      H1076   1.083       .  S
C1067      C1068   1.402       .  A
C1068      C1074   1.411       .  A
C1068      C1069   1.409       .  A
C1069      C1071   1.404       .  A
C1069      C1070   1.404       .  A
C1070      H1077   1.076       .  S
C1071      H1078   1.084       .  S
C1071      C1072   1.397       .  A
C1072      H1079   1.083       .  S
C1072      C1073   1.403       .  A
C1073      C1074   1.409       .  A
C1074      H1080   1.084       .  S
C1081      C1082   1.400       .  A
C1081      C1086   1.412       .  A
C1082      H1091   1.083       .  S
C1082      C1083   1.391       .  A
C1083      H1092   1.084       .  S
C1083      C1084   1.403       .  A
C1084      C1090   1.392       .  A
C1084      C1085   1.407       .  A
C1085      C1087   1.405       .  A
C1085      C1086   1.406       .  A
C1086      H1093   1.084       .  S
C1087      H1094   1.083       .  S
C1087      C1088   1.404       .  A
C1088      H1095   1.083       .  S
C1088      C1089   1.412       .  A
C1089      C1090   1.420       .  A
C1090      H1096   1.079       .  S
C1097      C1098   1.414       .  A
C1097      C1102   1.420       .  A
C1098      H1107   1.083       .  S
C1098      C1099   1.408       .  A
C1099      H1108   1.083       .  S
C1099      C1100   1.406       .  A
C1100      C1106   1.414       .  A
C1100      C1101   1.408       .  A
C1101      C1103   1.400       .  A
C1101      C1102   1.394       .  A
C1102      H1109   1.080       .  S
C1103      H1110   1.084       .  S
C1103      C1104   1.389       .  A
C1104      H1111   1.084       .  S
C1104      C1105   1.400       .  A
C1105      C1106   1.412       .  A
C1106      H1112   1.084       .  S
C1113      C1114   1.419       .  A
C1113      C1118   1.413       .  A
C1114      H1123   1.081       .  S
C1114      C1115   1.394       .  A
C1115      H1124   1.084       .  S
C1115      C1116   1.396       .  A
C1116      C1122   1.405       .  A
C1116      C1117   1.413       .  A
C1117      C1119   1.401       .  A
C1117      C1118   1.408       .  A
C1118      H1125   1.084       .  S
C1119      H1126   1.084       .  S
C1119      C1120   1.399       .  A
C1120      H1127   1.083       .  S
C1120      C1121   1.409       .  A
C1121      C1122   1.404       .  A
C1122      H1128   1.084       .  S
C1129      C1130   1.411       .  A
C1129      C1134   1.412   1_455  A
C1130      H1139   1.080       .  S
C1130      C1131   1.407   1_455  A
C1131      H1140   1.083   1_655  S
C1131      C1132   1.407       .  A
C1132      C1138   1.411       .  A
C1132      C1133   1.410       .  A
C1133      C1135   1.398       .  A
C1133      C1134   1.391       .  A
C1134      H1141   1.085       .  S
C1135      H1142   1.084       .  S
C1135      C1136   1.388       .  A
C1136      H1143   1.084       .  S
C1136      C1137   1.403       .  A
C1137      C1138   1.410       .  A
C1138      H1144   1.084       .  S
C1145      C1146   1.423       .  A
C1145      C1150   1.416   1_455  A
C1146      H1155   1.077       .  S
C1146      C1147   1.390       .  A
C1147      H1156   1.084       .  S
C1147      C1148   1.391       .  A
C1148      C1154   1.405       .  A
C1148      C1149   1.414   1_455  A
C1149      C1151   1.403       .  A
C1149      C1150   1.412       .  A
C1150      H1157   1.084       .  S
C1151      H1158   1.084       .  S
C1151      C1152   1.401       .  A
C1152      H1159   1.083       .  S
C1152      C1153   1.407   1_655  A
C1153      C1154   1.399       .  A
C1154      H1160   1.085       .  S
C1161      C1162   1.412       .  A
C1161      C1166   1.416       .  A
C1162      H1171   1.079       .  S
C1162      C1163   1.406       .  A
C1163      H1172   1.083       .  S
C1163      C1164   1.406       .  A
C1164      C1170   1.410       .  A
C1164      C1165   1.410       .  A
C1165      C1167   1.400       .  A
C1165      C1166   1.393       .  A
C1166      H1173   1.085       .  S
C1167      H1174   1.084       .  S
C1167      C1168   1.391       .  A
C1168      H1175   1.084       .  S
C1168      C1169   1.399       .  A
C1169      C1170   1.408       .  A
C1170      H1176   1.084       .  S
C1177      C1178   1.407       .  A
C1177      C1182   1.399       .  A
C1178      H1187   1.083       .  S
C1178      C1179   1.397       .  A
C1179      H1188   1.084       .  S
C1179      C1180   1.401       .  A
C1180      C1186   1.407       .  A
C1180      C1181   1.415       .  A
C1181      C1183   1.393       .  A
C1181      C1182   1.399       .  A
C1182      H1189   1.085       .  S
C1183      H1190   1.084       .  S
C1183      C1184   1.388       .  A
C1184      H1191   1.083   1_565  S
C1184      C1185   1.418       .  A
C1185      C1186   1.411       .  A
C1186      H1192   1.080       .  S
C1193      C1194   1.416       .  A
C1193      C1198   1.417   1_565  A
C1194      H1203   1.083       .  S
C1194      C1195   1.403       .  A
C1195      H1204   1.084       .  S
C1195      C1196   1.403       .  A
C1196      C1202   1.410       .  A
C1196      C1197   1.410   1_565  A
C1197      C1199   1.401       .  A
C1197      C1198   1.398       .  A
C1198      H1205   1.078       .  S
C1199      H1206   1.084       .  S
C1199      C1200   1.392       .  A
C1200      H1207   1.083       .  S
C1200      C1201   1.402       .  A
C1201      C1202   1.409   1_545  A
C1202      H1208   1.084       .  S
C1209      C1210   1.403       .  A
C1209      C1214   1.408       .  A
C1210      H1219   1.083       .  S
C1210      C1211   1.394       .  A
C1211      H1220   1.084       .  S
C1211      C1212   1.401       .  A
C1212      C1218   1.396       .  A
C1212      C1213   1.410       .  A
C1213      C1215   1.404       .  A
C1213      C1214   1.407       .  A
C1214      H1221   1.084       .  S
C1215      H1222   1.083       .  S
C1215      C1216   1.403       .  A
C1216      H1223   1.080       .  S
C1216      C1217   1.411       .  A
C1217      C1218   1.415       .  A
C1218      H1224   1.085       .  S
C1225      C1226   1.413       .  A
C1225      C1230   1.421       .  A
C1226      H1235   1.083       .  S
C1226      C1227   1.407       .  A
C1227      H1236   1.083       .  S
C1227      C1228   1.406       .  A
C1228      C1234   1.413       .  A
C1228      C1229   1.408       .  A
C1229      C1231   1.401       .  A
C1229      C1230   1.398       .  A
C1230      H1237   1.080       .  S
C1231      H1238   1.084       .  S
C1231      C1232   1.392       .  A
C1232      H1239   1.083       .  S
C1232      C1233   1.406       .  A
C1233      C1234   1.414       .  A
C1234      H1240   1.084       .  S
C1241      C1242   1.410       .  A
C1241      C1246   1.416       .  A
C1242      H1251   1.080       .  S
C1242      C1243   1.403       .  A
C1243      H1252   1.083       .  S
C1243      C1244   1.406       .  A
C1244      C1250   1.403       .  A
C1244      C1245   1.408       .  A
C1245      C1247   1.401       .  A
C1245      C1246   1.390       .  A
C1246      H1253   1.085       .  S
C1247      H1254   1.084       .  S
C1247      C1248   1.391       .  A
C1248      H1255   1.083       .  S
C1248      C1249   1.402       .  A
C1249      C1250   1.410       .  A
C1250      H1256   1.084       .  S
C1257      C1258   1.411   1_655  A
C1257      C1262   1.415       .  A
C1258      H1267   1.080       .  S
C1258      C1259   1.402       .  A
C1259      H1268   1.083       .  S
C1259      C1260   1.404       .  A
C1260      C1266   1.406       .  A
C1260      C1261   1.409       .  A
C1261      C1263   1.402       .  A
C1261      C1262   1.395   1_455  A
C1262      H1269   1.085       .  S
C1263      H1270   1.084   1_455  S
C1263      C1264   1.394       .  A
C1264      H1271   1.083       .  S
C1264      C1265   1.403       .  A
C1265      C1266   1.409       .  A
C1266      H1272   1.084       .  S
C1273      C1274   1.407   1_655  A
C1273      C1278   1.413       .  A
C1274      H1283   1.083       .  S
C1274      C1275   1.390       .  A
C1275      H1284   1.084       .  S
C1275      C1276   1.399       .  A
C1276      C1282   1.396       .  A
C1276      C1277   1.409   1_455  A
C1277      C1279   1.405       .  A
C1277      C1278   1.412       .  A
C1278      H1285   1.084       .  S
C1279      H1286   1.083       .  S
C1279      C1280   1.405       .  A
C1280      H1287   1.083       .  S
C1280      C1281   1.412       .  A
C1281      C1282   1.417   1_655  A
C1282      H1288   1.081       .  S
C1289      C1290   1.411       .  A
C1289      C1294   1.414       .  A
C1290      H1299   1.080       .  S
C1290      C1291   1.403       .  A
C1291      H1300   1.083       .  S
C1291      C1292   1.405       .  A
C1292      C1298   1.407       .  A
C1292      C1293   1.410       .  A
C1293      C1295   1.400       .  A
C1293      C1294   1.394       .  A
C1294      H1301   1.084       .  S
C1295      H1302   1.084       .  S
C1295      C1296   1.392       .  A
C1296      H1303   1.084       .  S
C1296      C1297   1.403       .  A
C1297      C1298   1.408       .  A
C1298      H1304   1.084       .  S
C1305      C1306   1.406       .  A
C1305      C1310   1.404       .  A
C1306      H1315   1.083       .  S
C1306      C1307   1.400       .  A
C1307      H1316   1.084       .  S
C1307      C1308   1.402       .  A
C1308      C1314   1.408       .  A
C1308      C1309   1.413       .  A
C1309      C1311   1.397       .  A
C1309      C1310   1.406       .  A
C1310      H1317   1.084       .  S
C1311      H1318   1.084       .  S
C1311      C1312   1.396       .  A
C1312      H1319   1.080       .  S
C1312      C1313   1.417       .  A
C1313      C1314   1.414       .  A
C1314      H1320   1.084       .  S
C1321      C1322   1.407       .  A
C1321      C1326   1.413       .  A
C1322      H1331   1.083       .  S
C1322      C1323   1.394       .  A
C1323      H1332   1.084       .  S
C1323      C1324   1.400       .  A
C1324      C1330   1.402       .  A
C1324      C1325   1.410       .  A
C1325      C1327   1.405       .  A
C1325      C1326   1.416       .  A
C1326      H1333   1.084       .  S
C1327      H1334   1.083       .  S
C1327      C1328   1.407       .  A
C1328      H1335   1.078       .  S
C1328      C1329   1.415       .  A
C1329      C1330   1.419       .  A
C1330      H1336   1.084       .  S
C1337      C1338   1.408       .  A
C1337      C1342   1.414       .  A
C1338      H1347   1.083       .  S
C1338      C1339   1.392       .  A
C1339      H1348   1.084       .  S
C1339      C1340   1.399       .  A
C1340      C1346   1.402       .  A
C1340      C1341   1.410       .  A
C1341      C1343   1.406       .  A
C1341      C1342   1.418       .  A
C1342      H1349   1.084       .  S
C1343      H1350   1.083       .  S
C1343      C1344   1.407       .  A
C1344      H1351   1.083       .  S
C1344      C1345   1.414       .  A
C1345      C1346   1.418       .  A
C1346      H1352   1.081       .  S
C1353      C1354   1.417       .  A
C1353      C1358   1.414       .  A
C1354      H1363   1.083       .  S
C1354      C1355   1.391       .  A
C1355      H1364   1.084       .  S
C1355      C1356   1.395       .  A
C1356      C1362   1.404       .  A
C1356      C1357   1.415       .  A
C1357      C1359   1.404       .  A
C1357      C1358   1.413       .  A
C1358      H1365   1.082       .  S
C1359      H1366   1.083       .  S
C1359      C1360   1.403       .  A
C1360      H1367   1.083       .  S
C1360      C1361   1.404       .  A
C1361      C1362   1.401       .  A
C1362      H1368   1.085       .  S
C1369      C1370   1.418       .  A
C1369      C1374   1.413       .  A
C1370      H1379   1.083       .  S
C1370      C1371   1.390       .  A
C1371      H1380   1.084       .  S
C1371      C1372   1.393       .  A
C1372      C1378   1.405       .  A
C1372      C1373   1.416       .  A
C1373      C1375   1.403       .  A
C1373      C1374   1.415       .  A
C1374      H1381   1.081       .  S
C1375      H1382   1.083       .  S
C1375      C1376   1.401       .  A
C1376      H1383   1.083       .  S
C1376      C1377   1.408       .  A
C1377      C1378   1.401       .  A
C1378      H1384   1.084       .  S
C1385      C1386   1.412       .  A
C1385      C1390   1.416       .  A
C1386      H1395   1.080   1_556  S
C1386      C1387   1.403       .  A
C1387      H1396   1.083       .  S
C1387      C1388   1.405       .  A
C1388      C1394   1.408       .  A
C1388      C1389   1.410       .  A
C1389      C1391   1.402       .  A
C1389      C1390   1.399       .  A
C1390      H1397   1.085       .  S
C1391      H1398   1.084       .  S
C1391      C1392   1.396       .  A
C1392      H1399   1.083       .  S
C1392      C1393   1.404       .  A
C1393      C1394   1.410       .  A
C1394      H1400   1.084       .  S
C1401      C1402   1.417       .  A
C1401      C1406   1.415       .  A
C1402      H1411   1.083       .  S
C1402      C1403   1.386       .  A
C1403      H1412   1.084       .  S
C1403      C1404   1.392       .  A
C1404      C1410   1.398       .  A
C1404      C1405   1.414       .  A
C1405      C1407   1.405       .  A
C1405      C1406   1.411       .  A
C1406      H1413   1.079       .  S
C1407      H1414   1.084       .  S
C1407      C1408   1.403       .  A
C1408      H1415   1.083       .  S
C1408      C1409   1.407       .  A
C1409      C1410   1.400       .  A
C1410      H1416   1.085       .  S
C1417      C1418   1.415       .  A
C1417      C1422   1.417   1_554  A
C1418      H1427   1.083       .  S
C1418      C1419   1.403       .  A
C1419      H1428   1.083       .  S
C1419      C1420   1.403       .  A
C1420      C1426   1.409       .  A
C1420      C1421   1.410   1_554  A
C1421      C1423   1.401       .  A
C1421      C1422   1.396       .  A
C1422      H1429   1.079       .  S
C1423      H1430   1.084       .  S
C1423      C1424   1.390       .  A
C1424      H1431   1.084       .  S
C1424      C1425   1.398       .  A
C1425      C1426   1.406   1_556  A
C1426      H1432   1.084       .  S
C1433      C1434   1.421       .  A
C1433      C1438   1.415       .  A
C1434      H1443   1.079       .  S
C1434      C1435   1.389       .  A
C1435      H1444   1.084       .  S
C1435      C1436   1.391       .  A
C1436      C1442   1.401       .  A
C1436      C1437   1.413       .  A
C1437      C1439   1.402       .  A
C1437      C1438   1.410       .  A
C1438      H1445   1.084       .  S
C1439      H1446   1.084       .  S
C1439      C1440   1.401       .  A
C1440      H1447   1.083       .  S
C1440      C1441   1.410       .  A
C1441      C1442   1.400       .  A
C1442      H1448   1.085       .  S
C1449      C1450   1.406       .  A
C1449      C1454   1.413       .  A
C1450      H1459   1.083       .  S
C1450      C1451   1.390       .  A
C1451      H1460   1.084       .  S
C1451      C1452   1.398       .  A
C1452      C1458   1.396       .  A
C1452      C1453   1.409       .  A
C1453      C1455   1.407       .  A
C1453      C1454   1.414       .  A
C1454      H1461   1.084       .  S
C1455      H1462   1.083       .  S
C1455      C1456   1.408       .  A
C1456      H1463   1.078       .  S
C1456      C1457   1.413       .  A
C1457      C1458   1.416       .  A
C1458      H1464   1.084       .  S
C1465      C1466   1.415       .  A
C1465      C1470   1.410       .  A
C1466      H1475   1.080       .  S
C1466      C1467   1.395       .  A
C1467      H1476   1.084       .  S
C1467      C1468   1.398       .  A
C1468      C1474   1.401       .  A
C1468      C1469   1.412       .  A
C1469      C1471   1.398       .  A
C1469      C1470   1.396       .  A
C1470      H1477   1.084       .  S
C1471      H1478   1.084       .  S
C1471      C1472   1.392       .  A
C1472      H1479   1.083       .  S
C1472      C1473   1.406       .  A
C1473      C1474   1.403       .  A
C1474      H1480   1.084       .  S
C1481      C1482   1.414       .  A
C1481      C1486   1.411       .  A
C1482      H1491   1.080       .  S
C1482      C1483   1.405       .  A
C1483      H1492   1.083       .  S
C1483      C1484   1.405       .  A
C1484      C1490   1.412       .  A
C1484      C1485   1.411       .  A
C1485      C1487   1.397       .  A
C1485      C1486   1.395       .  A
C1486      H1493   1.085       .  S
C1487      H1494   1.084       .  S
C1487      C1488   1.390       .  A
C1488      H1495   1.083       .  S
C1488      C1489   1.406       .  A
C1489      C1490   1.410       .  A
C1490      H1496   1.084       .  S
C1497      C1498   1.403       .  A
C1497      C1502   1.411       .  A
C1498      H1507   1.083       .  S
C1498      C1499   1.392       .  A
C1499      H1508   1.084       .  S
C1499      C1500   1.400       .  A
C1500      C1506   1.396       .  A
C1500      C1501   1.410       .  A
C1501      C1503   1.406   1_655  A
C1501      C1502   1.411       .  A
C1502      H1509   1.084       .  S
C1503      H1510   1.083       .  S
C1503      C1504   1.406       .  A
C1504      H1511   1.079       .  S
C1504      C1505   1.413   1_455  A
C1505      C1506   1.414       .  A
C1506      H1512   1.084       .  S
C1513      C1514   1.412   1_455  A
C1513      C1518   1.421       .  A
C1514      H1523   1.082       .  S
C1514      C1515   1.400       .  A
C1515      H1524   1.084       .  S
C1515      C1516   1.401   1_655  A
C1516      C1522   1.406       .  A
C1516      C1517   1.410       .  A
C1517      C1519   1.406       .  A
C1517      C1518   1.404       .  A
C1518      H1525   1.081       .  S
C1519      H1526   1.084       .  S
C1519      C1520   1.400       .  A
C1520      H1527   1.083       .  S
C1520      C1521   1.401       .  A
C1521      C1522   1.404       .  A
C1522      H1528   1.085   1_455  S
C1529      C1530   1.408       .  A
C1529      C1534   1.412       .  A
C1530      H1539   1.083       .  S
C1530      C1531   1.397       .  A
C1531      H1540   1.084       .  S
C1531      C1532   1.402       .  A
C1532      C1538   1.408       .  A
C1532      C1533   1.411       .  A
C1533      C1535   1.402       .  A
C1533      C1534   1.414       .  A
C1534      H1541   1.084       .  S
C1535      H1542   1.083       .  S
C1535      C1536   1.402       .  A
C1536      H1543   1.083       .  S
C1536      C1537   1.415       .  A
C1537      C1538   1.418       .  A
C1538      H1544   1.081       .  S
C1545      C1546   1.415       .  A
C1545      C1550   1.418       .  A
C1546      H1555   1.079       .  S
C1546      C1547   1.402       .  A
C1547      H1556   1.084       .  S
C1547      C1548   1.402       .  A
C1548      C1554   1.411       .  A
C1548      C1549   1.411       .  A
C1549      C1551   1.404       .  A
C1549      C1550   1.407       .  A
C1550      H1557   1.084       .  S
C1551      H1558   1.084       .  S
C1551      C1552   1.401       .  A
C1552      H1559   1.083       .  S
C1552      C1553   1.405       .  A
C1553      C1554   1.410       .  A
C1554      H1560   1.084       .  S
C1561      C1562   1.415       .  A
C1561      C1566   1.421       .  A
C1562      H1571   1.083       .  S
C1562      C1563   1.399       .  A
C1563      H1572   1.083       .  S
C1563      C1564   1.400       .  A
C1564      C1570   1.407       .  A
C1564      C1565   1.411       .  A
C1565      C1567   1.406       .  A
C1565      C1566   1.406       .  A
C1566      H1573   1.079       .  S
C1567      H1574   1.084       .  S
C1567      C1568   1.400       .  A
C1568      H1575   1.083       .  S
C1568      C1569   1.402       .  A
C1569      C1570   1.405       .  A
C1570      H1576   1.084       .  S
C1577      C1578   1.414       .  A
C1577      C1582   1.414       .  A
C1578      H1587   1.079       .  S
C1578      C1579   1.404       .  A
C1579      H1588   1.083       .  S
C1579      C1580   1.403       .  A
C1580      C1586   1.412       .  A
C1580      C1581   1.411       .  A
C1581      C1583   1.400       .  A
C1581      C1582   1.401       .  A
C1582      H1589   1.085       .  S
C1583      H1590   1.084       .  S
C1583      C1584   1.394       .  A
C1584      H1591   1.083       .  S
C1584      C1585   1.405       .  A
C1585      C1586   1.409       .  A
C1586      H1592   1.084       .  S
C1593      C1594   1.418       .  A
C1593      C1598   1.418       .  A
C1594      H1603   1.083       .  S
C1594      C1595   1.402       .  A
C1595      H1604   1.083       .  S
C1595      C1596   1.401       .  A
C1596      C1602   1.414       .  A
C1596      C1597   1.411       .  A
C1597      C1599   1.402       .  A
C1597      C1598   1.409       .  A
C1598      H1605   1.078       .  S
C1599      H1606   1.084       .  S
C1599      C1600   1.397       .  A
C1600      H1607   1.083       .  S
C1600      C1601   1.405       .  A
C1601      C1602   1.410       .  A
C1602      H1608   1.084       .  S
C1609      C1610   1.407       .  A
C1609      C1614   1.411       .  A
C1610      H1619   1.083       .  S
C1610      C1611   1.397       .  A
C1611      H1620   1.084       .  S
C1611      C1612   1.401       .  A
C1612      C1618   1.404       .  A
C1612      C1613   1.410       .  A
C1613      C1615   1.404       .  A
C1613      C1614   1.414       .  A
C1614      H1621   1.084       .  S
C1615      H1622   1.083       .  S
C1615      C1616   1.405       .  A
C1616      H1623   1.078       .  S
C1616      C1617   1.414       .  A
C1617      C1618   1.419       .  A
C1618      H1624   1.084       .  S
C1625      C1626   1.419       .  A
C1625      C1630   1.413       .  A
C1626      H1635   1.078       .  S
C1626      C1627   1.399       .  A
C1627      H1636   1.084       .  S
C1627      C1628   1.399       .  A
C1628      C1634   1.409       .  A
C1628      C1629   1.412       .  A
C1629      C1631   1.400       .  A
C1629      C1630   1.403       .  A
C1630      H1637   1.084       .  S
C1631      H1638   1.084       .  S
C1631      C1632   1.395       .  A
C1632      H1639   1.083       .  S
C1632      C1633   1.406       .  A
C1633      C1634   1.406       .  A
C1634      H1640   1.084       .  S
C1641      C1642   1.404       .  A
C1641      C1646   1.407       .  A
C1642      H1651   1.083       .  S
C1642      C1643   1.394       .  A
C1643      H1652   1.084       .  S
C1643      C1644   1.401       .  A
C1644      C1650   1.396       .  A
C1644      C1645   1.410       .  A
C1645      C1647   1.402       .  A
C1645      C1646   1.405       .  A
C1646      H1653   1.084       .  S
C1647      H1654   1.083       .  S
C1647      C1648   1.401       .  A
C1648      H1655   1.079       .  S
C1648      C1649   1.413       .  A
C1649      C1650   1.415       .  A
C1650      H1656   1.084       .  S
C1657      C1658   1.404       .  A
C1657      C1662   1.410       .  A
C1658      H1667   1.083       .  S
C1658      C1659   1.399       .  A
C1659      H1668   1.084       .  S
C1659      C1660   1.405       .  A
C1660      C1666   1.401       .  A
C1660      C1661   1.409       .  A
C1661      C1663   1.405       .  A
C1661      C1662   1.406       .  A
C1662      H1669   1.084       .  S
C1663      H1670   1.083       .  S
C1663      C1664   1.402       .  A
C1664      H1671   1.080       .  S
C1664      C1665   1.410       .  A
C1665      C1666   1.420       .  A
C1666      H1672   1.085       .  S
C1673      C1674   1.415       .  A
C1673      C1678   1.418       .  A
C1674      H1683   1.083       .  S
C1674      C1675   1.407       .  A
C1675      H1684   1.083       .  S
C1675      C1676   1.405       .  A
C1676      C1682   1.419       .  A
C1676      C1677   1.410       .  A
C1677      C1679   1.398       .  A
C1677      C1678   1.403       .  A
C1678      H1685   1.080       .  S
C1679      H1686   1.084       .  S
C1679      C1680   1.392       .  A
C1680      H1687   1.083       .  S
C1680      C1681   1.409       .  A
C1681      C1682   1.415       .  A
C1682      H1688   1.083       .  S
C1689      C1690   1.406       .  A
C1689      C1694   1.406       .  A
C1690      H1699   1.083       .  S
C1690      C1691   1.397       .  A
C1691      H1700   1.084       .  S
C1691      C1692   1.403       .  A
C1692      C1698   1.402       .  A
C1692      C1693   1.411       .  A
C1693      C1695   1.399       .  A
C1693      C1694   1.401       .  A
C1694      H1701   1.084       .  S
C1695      H1702   1.084       .  S
C1695      C1696   1.395       .  A
C1696      H1703   1.083       .  S
C1696      C1697   1.414       .  A
C1697      C1698   1.414       .  A
C1698      H1704   1.078       .  S
C1705      C1706   1.412       .  A
C1705      C1710   1.415       .  A
C1706      H1715   1.080       .  S
C1706      C1707   1.400       .  A
C1707      H1716   1.083       .  S
C1707      C1708   1.402       .  A
C1708      C1714   1.406       .  A
C1708      C1709   1.411       .  A
C1709      C1711   1.402       .  A
C1709      C1710   1.402       .  A
C1710      H1717   1.085       .  S
C1711      H1718   1.084       .  S
C1711      C1712   1.397       .  A
C1712      H1719   1.083       .  S
C1712      C1713   1.406       .  A
C1713      C1714   1.407       .  A
C1714      H1720   1.084       .  S
C1721      C1722   1.408       .  A
C1721      C1726   1.406       .  A
C1722      H1731   1.083       .  S
C1722      C1723   1.403       .  A
C1723      H1732   1.083       .  S
C1723      C1724   1.404       .  A
C1724      C1730   1.411       .  A
C1724      C1725   1.412       .  A
C1725      C1727   1.396       .  A
C1725      C1726   1.403       .  A
C1726      H1733   1.084       .  S
C1727      H1734   1.084       .  S
C1727      C1728   1.393       .  A
C1728      H1735   1.081       .  S
C1728      C1729   1.417       .  A
C1729      C1730   1.415       .  A
C1730      H1736   1.084       .  S
C1737      C1738   1.418       .  A
C1737      C1742   1.413       .  A
C1738      H1747   1.080       .  S
C1738      C1739   1.399       .  A
C1739      H1748   1.084       .  S
C1739      C1740   1.399       .  A
C1740      C1746   1.412       .  A
C1740      C1741   1.413       .  A
C1741      C1743   1.400       .  A
C1741      C1742   1.408       .  A
C1742      H1749   1.084       .  S
C1743      H1750   1.084       .  S
C1743      C1744   1.397       .  A
C1744      H1751   1.083       .  S
C1744      C1745   1.409       .  A
C1745      C1746   1.408       .  A
C1746      H1752   1.084       .  S
C1753      C1754   1.406       .  A
C1753      C1758   1.414       .  A
C1754      H1763   1.083       .  S
C1754      C1755   1.389       .  A
C1755      H1764   1.084       .  S
C1755      C1756   1.398       .  A
C1756      C1762   1.393       .  A
C1756      C1757   1.409       .  A
C1757      C1759   1.407       .  A
C1757      C1758   1.411       .  A
C1758      H1765   1.084       .  S
C1759      H1766   1.083       .  S
C1759      C1760   1.407       .  A
C1760      H1767   1.081       .  S
C1760      C1761   1.413       .  A
C1761      C1762   1.414       .  A
C1762      H1768   1.083       .  S
C1769      C1770   1.412   1_556  A
C1769      C1774   1.419       .  A
C1770      H1779   1.080       .  S
C1770      C1771   1.409       .  A
C1771      H1780   1.083       .  S
C1771      C1772   1.408       .  A
C1772      C1778   1.416       .  A
C1772      C1773   1.409   1_554  A
C1773      C1775   1.401       .  A
C1773      C1774   1.398       .  A
C1774      H1781   1.083       .  S
C1775      H1782   1.084       .  S
C1775      C1776   1.393       .  A
C1776      H1783   1.084       .  S
C1776      C1777   1.401       .  A
C1777      C1778   1.412   1_556  A
C1778      H1784   1.084       .  S
C1785      C1786   1.407       .  A
C1785      C1790   1.402       .  A
C1786      H1795   1.083       .  S
C1786      C1787   1.402       .  A
C1787      H1796   1.083       .  S
C1787      C1788   1.404       .  A
C1788      C1794   1.414   1_554  A
C1788      C1789   1.415       .  A
C1789      C1791   1.393       .  A
C1789      C1790   1.404       .  A
C1790      H1797   1.085       .  S
C1791      H1798   1.084       .  S
C1791      C1792   1.389   1_554  A
C1792      H1799   1.082       .  S
C1792      C1793   1.418       .  A
C1793      C1794   1.413       .  A
C1794      H1800   1.079       .  S
C1801      C1802   1.410       .  A
C1801      C1806   1.398       .  A
C1802      H1811   1.083       .  S
C1802      C1803   1.401       .  A
C1803      H1812   1.084       .  S
C1803      C1804   1.402       .  A
C1804      C1810   1.414       .  A
C1804      C1805   1.417       .  A
C1805      C1807   1.391       .  A
C1805      C1806   1.402       .  A
C1806      H1813   1.085       .  S
C1807      H1814   1.084       .  S
C1807      C1808   1.386       .  A
C1808      H1815   1.083       .  S
C1808      C1809   1.418       .  A
C1809      C1810   1.411       .  A
C1810      H1816   1.081       .  S
C1817      C1818   1.405       .  A
C1817      C1822   1.416       .  A
C1818      H1827   1.083       .  S
C1818      C1819   1.387       .  A
C1819      H1828   1.084       .  S
C1819      C1820   1.398       .  A
C1820      C1826   1.393       .  A
C1820      C1821   1.407       .  A
C1821      C1823   1.408       .  A
C1821      C1822   1.414       .  A
C1822      H1829   1.084       .  S
C1823      H1830   1.083       .  S
C1823      C1824   1.410       .  A
C1824      H1831   1.083       .  S
C1824      C1825   1.413       .  A
C1825      C1826   1.419       .  A
C1826      H1832   1.080       .  S
C1833      C1834   1.400       .  A
C1833      C1838   1.409   1_565  A
C1834      H1843   1.084       .  S
C1834      C1835   1.390       .  A
C1835      H1844   1.084       .  S
C1835      C1836   1.401       .  A
C1836      C1842   1.393       .  A
C1836      C1837   1.408   1_565  A
C1837      C1839   1.404       .  A
C1837      C1838   1.408       .  A
C1838      H1845   1.084       .  S
C1839      H1846   1.083       .  S
C1839      C1840   1.404       .  A
C1840      H1847   1.083       .  S
C1840      C1841   1.413   1_545  A
C1841      C1842   1.418       .  A
C1842      H1848   1.080       .  S
C1849      C1850   1.404       .  A
C1849      C1854   1.411       .  A
C1850      H1859   1.083       .  S
C1850      C1851   1.391   1_545  A
C1851      H1860   1.084       .  S
C1851      C1852   1.400       .  A
C1852      C1858   1.392       .  A
C1852      C1853   1.409   1_565  A
C1853      C1855   1.407       .  A
C1853      C1854   1.408       .  A
C1854      H1861   1.084       .  S
C1855      H1862   1.083       .  S
C1855      C1856   1.405       .  A
C1856      H1863   1.080       .  S
C1856      C1857   1.409   1_545  A
C1857      C1858   1.414       .  A
C1858      H1864   1.085       .  S
C1865      C1866   1.415       .  A
C1865      C1870   1.419       .  A
C1866      H1875   1.082       .  S
C1866      C1867   1.407       .  A
C1867      H1876   1.084       .  S
C1867      C1868   1.405       .  A
C1868      C1874   1.416       .  A
C1868      C1869   1.410       .  A
C1869      C1871   1.399       .  A
C1869      C1870   1.401       .  A
C1870      H1877   1.082       .  S
C1871      H1878   1.085       .  S
C1871      C1872   1.392       .  A
C1872      H1879   1.083       .  S
C1872      C1873   1.407       .  A
C1873      C1874   1.415       .  A
C1874      H1880   1.084       .  S
C1881      C1882   1.412       .  A
C1881      C1886   1.417       .  A
C1882      H1891   1.079       .  S
C1882      C1883   1.407       .  A
C1883      H1892   1.084       .  S
C1883      C1884   1.407       .  A
C1884      C1890   1.415       .  A
C1884      C1885   1.411       .  A
C1885      C1887   1.402       .  A
C1885      C1886   1.403       .  A
C1886      H1893   1.085       .  S
C1887      H1894   1.085       .  S
C1887      C1888   1.397       .  A
C1888      H1895   1.083       .  S
C1888      C1889   1.405       .  A
C1889      C1890   1.413       .  A
C1890      H1896   1.085       .  S
C1897      C1898   1.413       .  A
C1897      C1902   1.425       .  A
C1898      H1907   1.083       .  S
C1898      C1899   1.404       .  A
C1899      H1908   1.083       .  S
C1899      C1900   1.404       .  A
C1900      C1906   1.409       .  A
C1900      C1901   1.407       .  A
C1901      C1903   1.407       .  A
C1901      C1902   1.403       .  A
C1902      H1909   1.078       .  S
C1903      H1910   1.083       .  S
C1903      C1904   1.400       .  A
C1904      H1911   1.083       .  S
C1904      C1905   1.401       .  A
C1905      C1906   1.411       .  A
C1906      H1912   1.084       .  S
C1913      C1914   1.410       .  A
C1913      C1918   1.417   1_556  A
C1914      H1923   1.080   1_556  S
C1914      C1915   1.406       .  A
C1915      H1924   1.083       .  S
C1915      C1916   1.406       .  A
C1916      C1922   1.411       .  A
C1916      C1917   1.411       .  A
C1917      C1919   1.401       .  A
C1917      C1918   1.399   1_556  A
C1918      H1925   1.084       .  S
C1919      H1926   1.084       .  S
C1919      C1920   1.394       .  A
C1920      H1927   1.083       .  S
C1920      C1921   1.404       .  A
C1921      C1922   1.410       .  A
C1922      H1928   1.084       .  S
C1929      C1930   1.414       .  A
C1929      C1934   1.419   1_556  A
C1930      H1939   1.083       .  S
C1930      C1931   1.406       .  A
C1931      H1940   1.083       .  S
C1931      C1932   1.405       .  A
C1932      C1938   1.413       .  A
C1932      C1933   1.409   1_556  A
C1933      C1935   1.402       .  A
C1933      C1934   1.398       .  A
C1934      H1941   1.080       .  S
C1935      H1942   1.084       .  S
C1935      C1936   1.392       .  A
C1936      H1943   1.084       .  S
C1936      C1937   1.400   1_554  A
C1937      C1938   1.410       .  A
C1938      H1944   1.084       .  S
C1945      C1946   1.401       .  A
C1945      C1950   1.412       .  A
C1946      H1955   1.084       .  S
C1946      C1947   1.393       .  A
C1947      H1956   1.084       .  S
C1947      C1948   1.401       .  A
C1948      C1954   1.396       .  A
C1948      C1949   1.410       .  A
C1949      C1951   1.408       .  A
C1949      C1950   1.412       .  A
C1950      H1957   1.084       .  S
C1951      H1958   1.083       .  S
C1951      C1952   1.408       .  A
C1952      H1959   1.081       .  S
C1952      C1953   1.411       .  A
C1953      C1954   1.414       .  A
C1954      H1960   1.085       .  S
C1961      C1962   1.406       .  A
C1961      C1966   1.412       .  A
C1962      H1971   1.083       .  S
C1962      C1963   1.386       .  A
C1963      H1972   1.084       .  S
C1963      C1964   1.397       .  A
C1964      C1970   1.393       .  A
C1964      C1965   1.409       .  A
C1965      C1967   1.405       .  A
C1965      C1966   1.412       .  A
C1966      H1973   1.084       .  S
C1967      H1974   1.083       .  S
C1967      C1968   1.406       .  A
C1968      H1975   1.083       .  S
C1968      C1969   1.414       .  A
C1969      C1970   1.417       .  A
C1970      H1976   1.080       .  S
C1977      C1978   1.412       .  A
C1977      C1982   1.417       .  A
C1978      H1987   1.080       .  S
C1978      C1979   1.405       .  A
C1979      H1988   1.083       .  S
C1979      C1980   1.406       .  A
C1980      C1986   1.410       .  A
C1980      C1981   1.410       .  A
C1981      C1983   1.403       .  A
C1981      C1982   1.400       .  A
C1982      H1989   1.084       .  S
C1983      H1990   1.083       .  S
C1983      C1984   1.397       .  A
C1984      H1991   1.083       .  S
C1984      C1985   1.401       .  A
C1985      C1986   1.409       .  A
C1986      H1992   1.084       .  S
C1993      C1994   1.416       .  A
C1993      C1998   1.414       .  A
C1994      H2003   1.083       .  S
C1994      C1995   1.398       .  A
C1995      H2004   1.084       .  S
C1995      C1996   1.400       .  A
C1996      C2002   1.406       .  A
C1996      C1997   1.411       .  A
C1997      C1999   1.398       .  A
C1997      C1998   1.397       .  A
C1998      H2005   1.079       .  S
C1999      H2006   1.084       .  S
C1999      C2000   1.390       .  A
C2000      H2007   1.083       .  S
C2000      C2001   1.407       .  A
C2001      C2002   1.407       .  A
C2002      H2008   1.084       .  S
C2009      C2010   1.405       .  A
C2009      C2014   1.410       .  A
C2010      H2019   1.083       .  S
C2010      C2011   1.394       .  A
C2011      H2020   1.084       .  S
C2011      C2012   1.401       .  A
C2012      C2018   1.400       .  A
C2012      C2013   1.410       .  A
C2013      C2015   1.404       .  A
C2013      C2014   1.411       .  A
C2014      H2021   1.084       .  S
C2015      H2022   1.083       .  S
C2015      C2016   1.403       .  A
C2016      H2023   1.083       .  S
C2016      C2017   1.412       .  A
C2017      C2018   1.417       .  A
C2018      H2024   1.082       .  S
C2025      C2026   1.406       .  A
C2025      C2030   1.398       .  A
C2026      H2035   1.083       .  S
C2026      C2027   1.402       .  A
C2027      H2036   1.083       .  S
C2027      C2028   1.403       .  A
C2028      C2034   1.415       .  A
C2028      C2029   1.417       .  A
C2029      C2031   1.392       .  A
C2029      C2030   1.404       .  A
C2030      H2037   1.085       .  S
C2031      H2038   1.084       .  S
C2031      C2032   1.388       .  A
C2032      H2039   1.084       .  S
C2032      C2033   1.420       .  A
C2033      C2034   1.411       .  A
C2034      H2040   1.082       .  S
C2041      C2042   1.418       .  A
C2041      C2046   1.423       .  A
C2042      H2051   1.073       .  S
C2042      C2043   1.399       .  A
C2043      H2052   1.084       .  S
C2043      C2044   1.397       .  A
C2044      C2050   1.408       .  A
C2044      C2045   1.409       .  A
C2045      C2047   1.404       .  A
C2045      C2046   1.410       .  A
C2046      H2053   1.083       .  S
C2047      H2054   1.084       .  S
C2047      C2048   1.401       .  A
C2048      H2055   1.083       .  S
C2048      C2049   1.408       .  A
C2049      C2050   1.408       .  A
C2050      H2056   1.084       .  S
C2057      C2058   1.403       .  A
C2057      C2062   1.413       .  A
C2058      H2067   1.083       .  S
C2058      C2059   1.385       .  A
C2059      H2068   1.084       .  S
C2059      C2060   1.397       .  A
C2060      C2066   1.386       .  A
C2060      C2061   1.406       .  A
C2061      C2063   1.406       .  A
C2061      C2062   1.412       .  A
C2062      H2069   1.084       .  S
C2063      H2070   1.083       .  S
C2063      C2064   1.409       .  A
C2064      H2071   1.075       .  S
C2064      C2065   1.417       .  A
C2065      C2066   1.418       .  A
C2066      H2072   1.083       .  S
C2073      C2074   1.416       .  A
C2073      C2078   1.412       .  A
C2074      H2083   1.079       .  S
C2074      C2075   1.397       .  A
C2075      H2084   1.084       .  S
C2075      C2076   1.398       .  A
C2076      C2082   1.406       .  A
C2076      C2077   1.413       .  A
C2077      C2079   1.399       .  A
C2077      C2078   1.403       .  A
C2078      H2085   1.084       .  S
C2079      H2086   1.084       .  S
C2079      C2080   1.395       .  A
C2080      H2087   1.083       .  S
C2080      C2081   1.407       .  A
C2081      C2082   1.404       .  A
C2082      H2088   1.084       .  S
C2089      C2090   1.416       .  A
C2089      C2094   1.412       .  A
C2090      H2099   1.080       .  S
C2090      C2091   1.398       .  A
C2091      H2100   1.084       .  S
C2091      C2092   1.399       .  A
C2092      C2098   1.408       .  A
C2092      C2093   1.413       .  A
C2093      C2095   1.399       .  A
C2093      C2094   1.402       .  A
C2094      H2101   1.084       .  S
C2095      H2102   1.084       .  S
C2095      C2096   1.394       .  A
C2096      H2103   1.083       .  S
C2096      C2097   1.406       .  A
C2097      C2098   1.405       .  A
C2098      H2104   1.084       .  S
C2105      C2106   1.415       .  A
C2105      C2110   1.417       .  A
C2106      H2115   1.082       .  S
C2106      C2107   1.398       .  A
C2107      H2116   1.083       .  S
C2107      C2108   1.400       .  A
C2108      C2114   1.409       .  A
C2108      C2109   1.412       .  A
C2109      C2111   1.404       .  A
C2109      C2110   1.412       .  A
C2110      H2117   1.084       .  S
C2111      H2118   1.083       .  S
C2111      C2112   1.403       .  A
C2112      H2119   1.083       .  S
C2112      C2113   1.409       .  A
C2113      C2114   1.409       .  A
C2114      H2120   1.084       .  S
C2121      C2122   1.402       .  A
C2121      C2126   1.415       .  A
C2122      H2131   1.084       .  S
C2122      C2123   1.390       .  A
C2123      H2132   1.084       .  S
C2123      C2124   1.400       .  A
C2124      C2130   1.399       .  A
C2124      C2125   1.409       .  A
C2125      C2127   1.407       .  A
C2125      C2126   1.418       .  A
C2126      H2133   1.084       .  S
C2127      H2134   1.083       .  S
C2127      C2128   1.410       .  A
C2128      H2135   1.083       .  S
C2128      C2129   1.415       .  A
C2129      C2130   1.419       .  A
C2130      H2136   1.079       .  S
C2137      C2138   1.414       .  A
C2137      C2142   1.419       .  A
C2138      H2147   1.083       .  S
C2138      C2139   1.400       .  A
C2139      H2148   1.083       .  S
C2139      C2140   1.402       .  A
C2140      C2146   1.404       .  A
C2140      C2141   1.408       .  A
C2141      C2143   1.405       .  A
C2141      C2142   1.398       .  A
C2142      H2149   1.078       .  S
C2143      H2150   1.084       .  S
C2143      C2144   1.395       .  A
C2144      H2151   1.083       .  S
C2144      C2145   1.399       .  A
C2145      C2146   1.409       .  A
C2146      H2152   1.084       .  S
C2153      C2154   1.400       .  A
C2153      C2158   1.408       .  A
C2154      H2163   1.083       .  S
C2154      C2155   1.396       .  A
C2155      H2164   1.084       .  S
C2155      C2156   1.404       .  A
C2156      C2162   1.399       .  A
C2156      C2157   1.409       .  A
C2157      C2159   1.402       .  A
C2157      C2158   1.405       .  A
C2158      H2165   1.085       .  S
C2159      H2166   1.084       .  S
C2159      C2160   1.400       .  A
C2160      H2167   1.083       .  S
C2160      C2161   1.412       .  A
C2161      C2162   1.418       .  A
C2162      H2168   1.081       .  S
C2169      C2170   1.406       .  A
C2169      C2174   1.396       .  A
C2170      H2179   1.083       .  S
C2170      C2171   1.402       .  A
C2171      H2180   1.084       .  S
C2171      C2172   1.404       .  A
C2172      C2178   1.411       .  A
C2172      C2173   1.415       .  A
C2173      C2175   1.392       .  A
C2173      C2174   1.398       .  A
C2174      H2181   1.085       .  S
C2175      H2182   1.084       .  S
C2175      C2176   1.386       .  A
C2176      H2183   1.083       .  S
C2176      C2177   1.415       .  A
C2177      C2178   1.413       .  A
C2178      H2184   1.082       .  S
C2185      C2186   1.410       .  A
C2185      C2190   1.415       .  A
C2186      H2195   1.080       .  S
C2186      C2187   1.404   1_545  A
C2187      H2196   1.083       .  S
C2187      C2188   1.406       .  A
C2188      C2194   1.408       .  A
C2188      C2189   1.410       .  A
C2189      C2191   1.402       .  A
C2189      C2190   1.398   1_565  A
C2190      H2197   1.085       .  S
C2191      H2198   1.084       .  S
C2191      C2192   1.395       .  A
C2192      H2199   1.083       .  S
C2192      C2193   1.403       .  A
C2193      C2194   1.410       .  A
C2194      H2200   1.084       .  S
C2201      C2202   1.400       .  A
C2201      C2206   1.408   1_545  A
C2202      H2211   1.084       .  S
C2202      C2203   1.392       .  A
C2203      H2212   1.084       .  S
C2203      C2204   1.401       .  A
C2204      C2210   1.398       .  A
C2204      C2205   1.410   1_545  A
C2205      C2207   1.403       .  A
C2205      C2206   1.410       .  A
C2206      H2213   1.084       .  S
C2207      H2214   1.083       .  S
C2207      C2208   1.403       .  A
C2208      H2215   1.082       .  S
C2208      C2209   1.415   1_565  A
C2209      C2210   1.418       .  A
C2210      H2216   1.081       .  S
C2217      C2218   1.417       .  A
C2217      C2222   1.416       .  A
C2218      H2227   1.083       .  S
C2218      C2219   1.388       .  A
C2219      H2228   1.084       .  S
C2219      C2220   1.392       .  A
C2220      C2226   1.405       .  A
C2220      C2221   1.416       .  A
C2221      C2223   1.407       .  A
C2221      C2222   1.421       .  A
C2222      H2229   1.081       .  S
C2223      H2230   1.083       .  S
C2223      C2224   1.408       .  A
C2224      H2231   1.083       .  S
C2224      C2225   1.407       .  A
C2225      C2226   1.400       .  A
C2226      H2232   1.085       .  S
C2233      C2234   1.409       .  A
C2233      C2238   1.409       .  A
C2234      H2243   1.083       .  S
C2234      C2235   1.398       .  A
C2235      H2244   1.084       .  S
C2235      C2236   1.401       .  A
C2236      C2242   1.408       .  A
C2236      C2237   1.412       .  A
C2237      C2239   1.400       .  A
C2237      C2238   1.410       .  A
C2238      H2245   1.084       .  S
C2239      H2246   1.084       .  S
C2239      C2240   1.400       .  A
C2240      H2247   1.080       .  S
C2240      C2241   1.416       .  A
C2241      C2242   1.414       .  A
C2242      H2248   1.084       .  S
C2249      C2250   1.402       .  A
C2249      C2254   1.408       .  A
C2250      H2259   1.084       .  S
C2250      C2251   1.389       .  A
C2251      H2260   1.084       .  S
C2251      C2252   1.401       .  A
C2252      C2258   1.393       .  A
C2252      C2253   1.407       .  A
C2253      C2255   1.402       .  A
C2253      C2254   1.407       .  A
C2254      H2261   1.084       .  S
C2255      H2262   1.083       .  S
C2255      C2256   1.403       .  A
C2256      H2263   1.083       .  S
C2256      C2257   1.418       .  A
C2257      C2258   1.421       .  A
C2258      H2264   1.078       .  S
C2265      C2266   1.410       .  A
C2265      C2270   1.407       .  A
C2266      H2275   1.083       .  S
C2266      C2267   1.398       .  A
C2267      H2276   1.084       .  S
C2267      C2268   1.400       .  A
C2268      C2274   1.410       .  A
C2268      C2269   1.410       .  A
C2269      C2271   1.394       .  A
C2269      C2270   1.412       .  A
C2270      H2277   1.084       .  S
C2271      H2278   1.084       .  S
C2271      C2272   1.399       .  A
C2272      H2279   1.066       .  S
C2272      C2273   1.422       .  A
C2273      C2274   1.422       .  A
C2274      H2280   1.082       .  S
C2281      C2282   1.406       .  A
C2281      C2286   1.418       .  A
C2282      H2291   1.083       .  S
C2282      C2283   1.385       .  A
C2283      H2292   1.084       .  S
C2283      C2284   1.396       .  A
C2284      C2290   1.392       .  A
C2284      C2285   1.407       .  A
C2285      C2287   1.410       .  A
C2285      C2286   1.420       .  A
C2286      H2293   1.083       .  S
C2287      H2294   1.083       .  S
C2287      C2288   1.414       .  A
C2288      H2295   1.082       .  S
C2288      C2289   1.414       .  A
C2289      C2290   1.419       .  A
C2290      H2296   1.081       .  S
C2297      C2298   1.423       .  A
C2297      C2302   1.419       .  A
C2298      H2307   1.076       .  S
C2298      C2299   1.385       .  A
C2299      H2308   1.085       .  S
C2299      C2300   1.389       .  A
C2300      C2306   1.399       .  A
C2300      C2301   1.411       .  A
C2301      C2303   1.405       .  A
C2301      C2302   1.414       .  A
C2302      H2309   1.084       .  S
C2303      H2310   1.083       .  S
C2303      C2304   1.406       .  A
C2304      H2311   1.083       .  S
C2304      C2305   1.409       .  A
C2305      C2306   1.402       .  A
C2306      H2312   1.085       .  S
C2313      C2314   1.407       .  A
C2313      C2318   1.408       .  A
C2314      H2323   1.083       .  S
C2314      C2315   1.399       .  A
C2315      H2324   1.083       .  S
C2315      C2316   1.401       .  A
C2316      C2322   1.412       .  A
C2316      C2317   1.412       .  A
C2317      C2319   1.396       .  A
C2317      C2318   1.413       .  A
C2318      H2325   1.084       .  S
C2319      H2326   1.084       .  S
C2319      C2320   1.398       .  A
C2320      H2327   1.076       .  S
C2320      C2321   1.423       .  A
C2321      C2322   1.416       .  A
C2322      H2328   1.084       .  S
