geometry optimzed in LAMMPS
_audit_creation_date              2020-11-30 
_audit_creation_method            'lammps2cif' 
_symmetry_space_group_name_H-M    'P1' 
_symmetry_Int_Tables_number       1 
_symmetry_cell_setting            triclinic 
loop_ 
_symmetry_equiv_pos_as_xyz 
  x,y,z 
_cell_length_a                    39.88905147 
_cell_length_b                    39.88790403048426 
_cell_length_c                    39.88931218820703 
_cell_angle_alpha                 90.29823618740237 
_cell_angle_beta                  90.29691171278313 
_cell_angle_gamma                 89.71561075901596 
loop_ 
_atom_site_label 
_atom_site_type_symbol 
_atom_site_fract_x 
_atom_site_fract_y 
_atom_site_fract_z 
_atom_site_charge 
O1          O  0.21510999  0.21591863  0.02607980    -0.74300
O2          O  0.28290616  0.28363416  0.02831330    -0.74400
O3          O  0.21494477  0.28386984  0.02719736    -0.74400
O4          O  0.28302889  0.21569161  0.02717975    -0.74500
O5          O  0.28365472  0.21632330  0.47119483    -0.74400
O6          O  0.21548003  0.28441001  0.47121097    -0.74400
O7          O  0.28343576  0.28424705  0.47232443    -0.74400
O8          O  0.21571317  0.21645002  0.47008999    -0.74400
Ni9        Ni  0.24897144  0.24975704  0.02919996     1.25400
Ni10       Ni  0.24959150  0.25038401  0.46919687     1.25400
C11         C  0.20437609  0.20511437  0.99774323     0.87800
C12         C  0.29424207  0.29497840  0.50066343     0.87800
C13         C  0.20409236  0.29525843  0.99920516     0.87800
C14         C  0.29446207  0.20489476  0.49918579     0.88000
O15         O  0.28321369  0.47193047  0.28364467    -0.74300
O16         O  0.21497851  0.47186420  0.21561551    -0.74400
O17         O  0.28292150  0.47077343  0.21568621    -0.74400
O18         O  0.21525579  0.47303167  0.28354285    -0.74500
O19         O  0.21584140  0.02900151  0.28291145    -0.74400
O20         O  0.28363379  0.02677073  0.21519611    -0.74400
O21         O  0.21571366  0.02785335  0.21496926    -0.74400
O22         O  0.28380112  0.02791072  0.28314689    -0.74400
Ni23       Ni  0.24907142  0.46989138  0.24964931     1.25400
Ni24       Ni  0.24977350  0.02989058  0.24903354     1.25400
C25         C  0.29461099  0.49993301  0.29447024     0.87800
C26         C  0.20416378  0.49984911  0.20418279     0.87800
C27         C  0.29425031  0.49842417  0.20432755     0.87800
C28         C  0.20446387  0.50137627  0.29427320     0.88000
O29         O  0.47136031  0.28348728  0.28345589    -0.74300
O30         O  0.47133896  0.21538758  0.21529091    -0.74400
O31         O  0.47255959  0.21556907  0.28323731    -0.74400
O32         O  0.47012760  0.28335078  0.21551412    -0.74500
O33         O  0.02611437  0.28395339  0.21482275    -0.74400
O34         O  0.02854618  0.21625011  0.28263034    -0.74400
O35         O  0.02732496  0.21601229  0.21466772    -0.74400
O36         O  0.02734294  0.28419709  0.28274094    -0.74400
Ni37       Ni  0.46933883  0.24941861  0.24939810     1.25400
Ni38       Ni  0.02933986  0.25012666  0.24868568     1.25400
C39         C  0.49935529  0.29496221  0.29421304     0.87800
C40         C  0.49933052  0.20458198  0.20386437     0.87800
C41         C  0.50092189  0.20488119  0.29401375     0.87800
C42         C  0.49774988  0.29472314  0.20413270     0.88000
C43         C  0.16345733  0.12239235  0.49736275     0.80300
N44         N  0.18749257  0.14637505  0.49724745    -0.78000
C45         C  0.17857564  0.17932266  0.49702329     0.82800
N46         N  0.14565510  0.18830846  0.49717295    -0.77900
C47         C  0.12162385  0.16433574  0.49728159     0.82900
N48         N  0.13062833  0.13148317  0.49742234    -0.79700
C49         C  0.12111500  0.33655330  0.49841730     0.80300
N50         N  0.12996659  0.36932443  0.49921188    -0.78000
C51         C  0.16272871  0.37820687  0.49999725     0.82800
N52         N  0.18689036  0.35410498  0.49992385    -0.77900
C53         C  0.17813387  0.32120040  0.49920597     0.82900
N54         N  0.14523871  0.31241477  0.49848715    -0.79700
C55         C  0.12173273  0.50182549  0.33519473     0.80300
N56         N  0.14572244  0.50190417  0.31116936    -0.78000
C57         C  0.17867191  0.50212375  0.32008951     0.82800
N58         N  0.18765458  0.50201315  0.35301892    -0.77900
C59         C  0.16368200  0.50194424  0.37705423     0.82900
N60         N  0.13082462  0.50180148  0.36803303    -0.79700
N61         N  0.17628667  0.46349946  0.46247344    -0.36500
N62         N  0.17454796  0.46383405  0.03567284    -0.57100
N63         N  0.17626430  0.03708204  0.03592344    -0.36500
N64         N  0.17572998  0.03661813  0.46276187    -0.57100
C65         C  0.16849089  0.43106145  0.46842112     0.27100
C66         C  0.16913868  0.46966163  0.42983334     0.27100
C67         C  0.16803680  0.03102641  0.06823055     0.27100
C68         C  0.16843149  0.06953005  0.02956499     0.27100
C69         C  0.17722492  0.43042245  0.03053673     0.35700
C70         C  0.17734234  0.46898432  0.06907087     0.35700
C71         C  0.17938473  0.03133984  0.42950414     0.35700
C72         C  0.17931734  0.06988944  0.46800808     0.35700
C73         C  0.15740017  0.41616746  0.43890198    -0.21800
C74         C  0.15798432  0.44040993  0.41464672    -0.21800
C75         C  0.15586988  0.06026748  0.08282520    -0.21800
C76         C  0.15625031  0.08446514  0.05852929    -0.21800
C77         C  0.18178408  0.41419598  0.06089072    -0.22900
C78         C  0.18188444  0.43863264  0.08530756    -0.22900
C79         C  0.18549317  0.06144510  0.41349382    -0.22900
C80         C  0.18547576  0.08587685  0.43790281    -0.22800
C81         C  0.17147865  0.41417062  0.49947626    -0.18200
C82         C  0.17278244  0.50068500  0.41306240    -0.18200
C83         C  0.17245876  0.08637275  0.49864365    -0.18200
C84         C  0.17146778  0.50001725  0.08530033    -0.18200
H85         H  0.14979050  0.39041650  0.43505988     0.14700
H86         H  0.15140293  0.43667941  0.38863740     0.14700
H87         H  0.14762240  0.06396048  0.10839445     0.14700
H88         H  0.14875634  0.11025639  0.06202847     0.14700
H89         H  0.18371709  0.38747177  0.06511235     0.13000
H90         H  0.18386034  0.43442070  0.11203105     0.13000
H91         H  0.18849284  0.06554146  0.38688107     0.13000
H92         H  0.18842334  0.11249263  0.43377915     0.13000
H93         H  0.18664432  0.48023017  0.47951580     0.26300
H94         H  0.18746618  0.02029416  0.01946399     0.26200
C95         C  0.16279057  0.49944355  0.12125670     0.80300
N96         N  0.18696258  0.49947453  0.14535101    -0.78000
C97         C  0.17820398  0.49983630  0.17825560     0.82800
N98         N  0.14530556  0.50023767  0.18704353    -0.77900
C99         C  0.12119191  0.50034905  0.16288851     0.82900
N100        N  0.13004545  0.49991766  0.13013549    -0.79700
C101        C  0.33582418  0.12195725  0.49881258     0.80300
N102        N  0.36856967  0.13083699  0.49926069    -0.78000
C103        C  0.37743138  0.16358868  0.49967152     0.82800
N104        N  0.35332194  0.18774630  0.49956557    -0.78500
C105        C  0.32041867  0.17895980  0.49918750     0.82900
N106        N  0.31165410  0.14605183  0.49884384    -0.79700
C107        C  0.50130293  0.12212798  0.33479345     0.80300
N108        N  0.50148768  0.14616131  0.31082902    -0.78000
C109        C  0.50168748  0.17908402  0.31981666     0.82800
N110        N  0.50143089  0.18800224  0.35276878    -0.77900
C111        C  0.50123584  0.16396723  0.37675103     0.82900
N112        N  0.50113277  0.13113499  0.36765014    -0.79700
N113        N  0.46272147  0.17685905  0.46210225    -0.36500
N114        N  0.03588743  0.17625546  0.46252362    -0.57100
N115        N  0.03622634  0.17689658  0.03567481    -0.36500
N116        N  0.46302370  0.17519348  0.03530184    -0.57100
C117        C  0.46904920  0.16902412  0.42964567     0.27100
C118        C  0.43039955  0.16869309  0.46817654     0.27100
C119        C  0.06889349  0.16988113  0.02955334     0.27100
C120        C  0.03029649  0.16918820  0.06813119     0.27100
C121        C  0.03063225  0.17979998  0.42925033     0.35700
C122        C  0.06914933  0.17990661  0.46778514     0.35700
C123        C  0.42963055  0.17803648  0.03015077     0.35700
C124        C  0.46815364  0.17779108  0.06872017     0.35700
C125        C  0.44004529  0.15691799  0.41472199    -0.21800
C126        C  0.41576144  0.15657496  0.43893479    -0.21800
C127        C  0.08412654  0.15892000  0.05885572    -0.21800
C128        C  0.05985982  0.15830779  0.08308701    -0.21800
C129        C  0.06073700  0.18591857  0.41324589    -0.22900
C130        C  0.08515271  0.18596322  0.43766699    -0.22900
C131        C  0.41339313  0.18252962  0.06051010    -0.22900
C132        C  0.43780176  0.18234500  0.08495036    -0.22800
C133        C  0.49997633  0.17297700  0.41278226    -0.18200
C134        C  0.41339253  0.17226764  0.49909919    -0.18200
C135        C  0.49921000  0.17204650  0.08497495    -0.18200
C136        C  0.08563657  0.17342484  0.49850906    -0.18200
H137        H  0.43651197  0.14945510  0.38892636     0.14700
H138        H  0.39017094  0.14838135  0.43525320     0.14700
H139        H  0.11016409  0.15245225  0.06261569     0.14700
H140        H  0.06371607  0.15080787  0.10886633     0.14700
H141        H  0.06485420  0.18883880  0.38662783     0.13000
H142        H  0.11176484  0.18895892  0.43355801     0.13000
H143        H  0.38667214  0.18454095  0.06472084     0.13000
H144        H  0.43357740  0.18424532  0.11167621     0.13000
H145        H  0.47921518  0.18802159  0.47889131     0.26300
H146        H  0.01914764  0.18707839  0.01888708     0.26200
C147        C  0.49866291  0.16326195  0.12091682     0.80300
N148        N  0.49871649  0.18741032  0.14503013    -0.78000
C149        C  0.49933206  0.17863790  0.17792268     0.82800
N150        N  0.49997448  0.14574254  0.18669153    -0.77900
C151        C  0.50007488  0.12163042  0.16254042     0.82900
N152        N  0.49937934  0.13049245  0.12977309    -0.79700
C153        C  0.49741245  0.33548855  0.12137297     0.80300
N154        N  0.49722904  0.31152434  0.14540782    -0.78000
C155        C  0.49697701  0.32051521  0.17832880     0.82800
N156        N  0.49717488  0.35346679  0.18724505    -0.77900
C157        C  0.49736321  0.37744802  0.16321278     0.82900
N158        N  0.49752404  0.36834774  0.13038004    -0.79700
C159        C  0.33513679  0.49808696  0.12159521     0.80300
N160        N  0.36797147  0.49813419  0.13067742    -0.78000
C161        C  0.37699425  0.49796399  0.16352650     0.82800
N162        N  0.35297113  0.49783667  0.18750404    -0.77900
C163        C  0.32004370  0.49770084  0.17852759     0.82900
N164        N  0.31111264  0.49795672  0.14558304    -0.79700
N165        N  0.03590108  0.46278086  0.17615061    -0.36500
N166        N  0.46272843  0.46321236  0.17548834    -0.57100
N167        N  0.46252863  0.03636723  0.17615953    -0.36500
N168        N  0.03572132  0.03601760  0.17441370    -0.57100
C169        C  0.02955960  0.43033209  0.16829821     0.27100
C170        C  0.06822167  0.46885509  0.16799014     0.27100
C171        C  0.42986709  0.03022444  0.16913751     0.27100
C172        C  0.46845625  0.06881952  0.16842956     0.27100
C173        C  0.46798117  0.42994390  0.17907160     0.35700
C174        C  0.42947033  0.46847739  0.17915187     0.35700
C175        C  0.06911201  0.03087096  0.17728791     0.35700
C176        C  0.03058618  0.06943101  0.17707142     0.35700
C177        C  0.05855900  0.41540652  0.15619740    -0.21800
C178        C  0.08285068  0.43961537  0.15586667    -0.21800
C179        C  0.41463261  0.05951491  0.15814849    -0.21800
C180        C  0.43889496  0.08375533  0.15752067    -0.21800
C181        C  0.43787947  0.41394483  0.18522934    -0.22900
C182        C  0.41346648  0.43836668  0.18525919    -0.22900
C183        C  0.08534259  0.06122765  0.18185978    -0.22900
C184        C  0.06093109  0.08566299  0.18169448    -0.22800
C185        C  0.49862697  0.41347402  0.17223446    -0.18200
C186        C  0.08523739  0.49977347  0.17157744    -0.18200
C187        C  0.49953323  0.08568265  0.17131492    -0.18200
C188        C  0.41299133  0.49918993  0.17260885    -0.18200
H189        H  0.06208505  0.38961137  0.14873391     0.14700
H190        H  0.10844029  0.43593170  0.14768064     0.14700
H191        H  0.38859318  0.06326581  0.15169048     0.14700
H192        H  0.43503443  0.10952953  0.15000544     0.14700
H193        H  0.43376202  0.38732891  0.18818227     0.13000
H194        H  0.38685553  0.43426060  0.18826964     0.13000
H195        H  0.11206132  0.06544067  0.18391582     0.13000
H196        H  0.06514844  0.11238775  0.18365643     0.13000
H197        H  0.01941070  0.47956725  0.18732585     0.26300
H198        H  0.47960683  0.01959383  0.18638073     0.26200
C199        C  0.37697545  0.33588893  0.50103861     0.80300
N200        N  0.36788989  0.36872744  0.50097876    -0.78000
C201        C  0.33503400  0.37774283  0.50112765     0.82800
N202        N  0.31106096  0.35370797  0.50124430    -0.77900
C203        C  0.32003927  0.32078265  0.50139232     0.82900
N204        N  0.35298449  0.31186121  0.50116371    -0.79700
C205        C  0.49982573  0.33629946  0.37717399     0.80300
N206        N  0.49976178  0.31213658  0.35306464    -0.78000
C207        C  0.49936225  0.32091211  0.32016117     0.82800
N208        N  0.49895350  0.35381934  0.31139173    -0.77900
C209        C  0.49886693  0.37792522  0.33555968     0.82900
N210        N  0.49933982  0.36905019  0.36830734    -0.79700
C211        C  0.37757399  0.49914684  0.33580885     0.80300
N212        N  0.35346128  0.49923080  0.31165467    -0.78000
C213        C  0.32056291  0.49994902  0.32042071     0.82800
N214        N  0.31179280  0.50065380  0.35331884    -0.77900
C215        C  0.33594409  0.50071940  0.37743508     0.82900
N216        N  0.36870859  0.49993302  0.36857265    -0.79700
N217        N  0.32238672  0.46315739  0.46270589    -0.36500
N218        N  0.32293372  0.46348071  0.03583923    -0.57100
N219        N  0.32249226  0.03667389  0.03635524    -0.36500
N220        N  0.32409520  0.03637929  0.46316201    -0.57100
C221        C  0.32956309  0.43052391  0.46886268     0.27100
C222        C  0.33018325  0.46912112  0.43027338     0.27100
C223        C  0.33035618  0.03031932  0.06879721     0.27100
C224        C  0.33075885  0.06896974  0.03027820     0.27100
C225        C  0.31925889  0.43022380  0.03056324     0.35700
C226        C  0.31924664  0.46874689  0.06909252     0.35700
C227        C  0.32146943  0.03126377  0.42974238     0.35700
C228        C  0.32131185  0.06977682  0.46832689     0.35700
C229        C  0.34073784  0.41535530  0.43961320    -0.21800
C230        C  0.34130191  0.43961643  0.41537668    -0.21800
C231        C  0.34260067  0.05927428  0.08370494    -0.21800
C232        C  0.34298804  0.08356051  0.05949782    -0.21800
C233        C  0.31303027  0.41423253  0.06065140    -0.22900
C234        C  0.31299812  0.43865506  0.08507162    -0.22900
C235        C  0.31695579  0.06162951  0.41352669    -0.22900
C236        C  0.31682687  0.08603153  0.43797614    -0.22800
C237        C  0.32592576  0.41374173  0.49987836    -0.18200
C238        C  0.32718275  0.50018086  0.41339338    -0.18200
C239        C  0.32715331  0.08599570  0.49937481    -0.18200
C240        C  0.32612003  0.49937928  0.08557867    -0.18200
H241        H  0.34734989  0.38935454  0.43588054     0.14700
H242        H  0.34892242  0.43578839  0.38962964     0.14700
H243        H  0.35012517  0.06277616  0.10948547     0.14700
H244        H  0.35127941  0.10912112  0.06317123     0.14700
H245        H  0.30998766  0.38762373  0.06474847     0.13000
H246        H  0.30996186  0.43454834  0.11167803     0.13000
H247        H  0.31506658  0.06586802  0.38680282     0.13000
H248        H  0.31487492  0.11275878  0.43377392     0.13000
H249        H  0.31201225  0.48018194  0.47943849     0.26300
H250        H  0.31123654  0.02022126  0.01958915     0.26200
N251        N  0.03640682  0.46323797  0.32227506    -0.36500
N252        N  0.03600807  0.03639630  0.32278502    -0.57100
N253        N  0.46285829  0.03672378  0.32219988    -0.36500
N254        N  0.46321446  0.46351680  0.32392088    -0.57100
C255        C  0.06883708  0.46961286  0.33018842     0.27100
C256        C  0.03032290  0.43094018  0.33052864     0.27100
C257        C  0.46901652  0.06937223  0.32930491     0.27100
C258        C  0.43042973  0.03077115  0.33001908     0.27100
C259        C  0.06927963  0.03114249  0.31923291     0.35700
C260        C  0.03074510  0.06965190  0.31910051     0.35700
C261        C  0.46837946  0.43012390  0.32105361     0.35700
C262        C  0.42979686  0.46863830  0.32126985     0.35700
C263        C  0.08373287  0.44066495  0.34243981    -0.21800
C264        C  0.05953201  0.41636608  0.34278943    -0.21800
C265        C  0.43976624  0.08456720  0.34044510    -0.21800
C266        C  0.41553115  0.06030143  0.34106851    -0.21800
C267        C  0.08528214  0.06123944  0.31306015    -0.22900
C268        C  0.06085972  0.08565164  0.31299640    -0.22900
C269        C  0.43803053  0.41387890  0.31649057    -0.22900
C270        C  0.41358208  0.43828124  0.31665946    -0.22800
C271        C  0.08570585  0.50052721  0.32615832    -0.18200
C272        C  0.49942415  0.41389678  0.32689070    -0.18200
C273        C  0.41353086  0.49968632  0.32704832    -0.18200
C274        C  0.50004468  0.08613742  0.32567930    -0.18200
H275        H  0.10950642  0.43717324  0.34997971     0.14700
H276        H  0.06320415  0.39080772  0.35107710     0.14700
H277        H  0.43604192  0.11057953  0.34703216     0.14700
H278        H  0.38978880  0.06413800  0.34869950     0.14700
H279        H  0.11190139  0.06535829  0.31014206     0.13000
H280        H  0.06497150  0.11226290  0.30998984     0.13000
H281        H  0.43382955  0.38715606  0.31445316     0.13000
H282        H  0.38685925  0.43404813  0.31472176     0.13000
H283        H  0.01964556  0.47968013  0.31099238     0.26300
H284        H  0.47959930  0.01967535  0.31187537     0.26200
N285        N  0.46229492  0.32298123  0.46247484    -0.36500
N286        N  0.03548116  0.32460963  0.46276557    -0.57100
N287        N  0.03586402  0.32286943  0.03597372    -0.36500
N288        N  0.46273061  0.32348715  0.03563508    -0.57100
C289        C  0.46837041  0.33122439  0.43017383     0.27100
C290        C  0.42985973  0.33087147  0.46883763     0.27100
C291        C  0.06829009  0.33070168  0.03001647     0.27100
C292        C  0.02970847  0.33000975  0.06861574     0.27100
C293        C  0.03032099  0.32179461  0.42936765     0.35700
C294        C  0.06890119  0.32199885  0.46789069     0.35700
C295        C  0.42946366  0.31990315  0.03037052     0.35700
C296        C  0.46799484  0.31976722  0.06888586     0.35700
C297        C  0.43915286  0.34345182  0.41558799    -0.21800
C298        C  0.41495405  0.34309417  0.43988116    -0.21800
C299        C  0.08318606  0.34179754  0.05953453    -0.21800
C300        C  0.05895333  0.34118903  0.08379877    -0.21800
C301        C  0.06067563  0.31730291  0.41312327    -0.22900
C302        C  0.08512199  0.31746347  0.43753059    -0.22900
C303        C  0.41346632  0.31367334  0.06045424    -0.22900
C304        C  0.43788728  0.31360851  0.08487105    -0.22800
C305        C  0.49927238  0.32761772  0.41314002    -0.18200
C306        C  0.41299566  0.32685199  0.49975056    -0.18200
C307        C  0.49868588  0.32637091  0.08538171    -0.18200
C308        C  0.08516136  0.32776352  0.49894724    -0.18200
H309        H  0.43547429  0.35172473  0.39002574     0.14700
H310        H  0.38917502  0.35061029  0.43638005     0.14700
H311        H  0.10892597  0.34944811  0.06336514     0.14700
H312        H  0.06267664  0.34780791  0.10980280     0.14700
H313        H  0.06488166  0.31532546  0.38639889     0.13000
H314        H  0.11184725  0.31557933  0.43329888     0.13000
H315        H  0.38685010  0.31071890  0.06456294     0.13000
H316        H  0.43377849  0.31056474  0.11147650     0.13000
H317        H  0.47906301  0.31173126  0.47892756     0.26300
H318        H  0.01913035  0.31251331  0.01893542     0.26200
O319        O  0.21511006  0.21591867  0.52607979    -0.74300
O320        O  0.28290623  0.28363419  0.52831329    -0.74400
O321        O  0.21494490  0.28386990  0.52719731    -0.74400
O322        O  0.28302896  0.21569160  0.52717977    -0.74500
O323        O  0.28365458  0.21632328  0.97119481    -0.74400
O324        O  0.21547999  0.28441008  0.97121103    -0.74400
O325        O  0.28343575  0.28424704  0.97232444    -0.74400
O326        O  0.21571308  0.21645006  0.97009000    -0.74400
Ni327      Ni  0.24897153  0.24975706  0.52919995     1.25400
Ni328      Ni  0.24959142  0.25038404  0.96919688     1.25400
C329        C  0.20437616  0.20511437  0.49774323     0.87800
C330        C  0.29424204  0.29497838  0.00066345     0.87800
C331        C  0.20409244  0.29525841  0.49920510     0.87800
C332        C  0.29446195  0.20489474  0.99918577     0.88000
O333        O  0.28321371  0.47193041  0.78364464    -0.74300
O334        O  0.21497851  0.47186420  0.71561548    -0.74400
O335        O  0.28292152  0.47077339  0.71568619    -0.74400
O336        O  0.21525580  0.47303163  0.78354286    -0.74500
O337        O  0.21584134  0.02900150  0.78291141    -0.74400
O338        O  0.28363369  0.02677073  0.71519607    -0.74400
O339        O  0.21571355  0.02785336  0.71496924    -0.74400
O340        O  0.28380109  0.02791063  0.78314685    -0.74400
Ni341      Ni  0.24907143  0.46989133  0.74964929     1.25400
Ni342      Ni  0.24977342  0.02989056  0.74903351     1.25400
C343        C  0.29461096  0.49993297  0.79447023     0.87800
C344        C  0.20416377  0.49984912  0.70418277     0.87800
C345        C  0.29425035  0.49842415  0.70432758     0.87800
C346        C  0.20446388  0.50137625  0.79427318     0.88000
O347        O  0.47136022  0.28348717  0.78345591    -0.74300
O348        O  0.47133904  0.21538753  0.71529087    -0.74400
O349        O  0.47255959  0.21556895  0.78323724    -0.74400
O350        O  0.47012758  0.28335071  0.71551409    -0.74500
O351        O  0.02611427  0.28395340  0.71482274    -0.74400
O352        O  0.02854616  0.21625010  0.78263031    -0.74400
O353        O  0.02732498  0.21601230  0.71466771    -0.74400
O354        O  0.02734294  0.28419702  0.78274094    -0.74400
Ni355      Ni  0.46933883  0.24941852  0.74939807     1.25400
Ni356      Ni  0.02933983  0.25012664  0.74868566     1.25400
C357        C  0.49935520  0.29496214  0.79421303     0.87800
C358        C  0.49933062  0.20458198  0.70386434     0.87800
C359        C  0.50092190  0.20488114  0.79401371     0.87800
C360        C  0.49774987  0.29472311  0.70413271     0.88000
C361        C  0.16345732  0.12239237  0.99736280     0.80300
N362        N  0.18749254  0.14637508  0.99724756    -0.78000
C363        C  0.17857558  0.17932267  0.99702329     0.82800
N364        N  0.14565504  0.18830846  0.99717297    -0.77900
C365        C  0.12162381  0.16433573  0.99728169     0.82900
N366        N  0.13062831  0.13148316  0.99742238    -0.79700
C367        C  0.12111496  0.33655335  0.99841733     0.80300
N368        N  0.12996653  0.36932448  0.99921186    -0.78000
C369        C  0.16272865  0.37820691  0.99999725     0.82800
N370        N  0.18689030  0.35410501  0.99992385    -0.77900
C371        C  0.17813381  0.32120043  0.99920605     0.82900
N372        N  0.14523864  0.31241480  0.99848728    -0.79700
C373        C  0.12173276  0.50182544  0.83519477     0.80300
N374        N  0.14572246  0.50190421  0.81116939    -0.78000
C375        C  0.17867193  0.50212379  0.82008951     0.82800
N376        N  0.18765462  0.50201320  0.85301891    -0.77900
C377        C  0.16368207  0.50194422  0.87705424     0.82900
N378        N  0.13082468  0.50180135  0.86803307    -0.79700
N379        N  0.17628672  0.46349945  0.96247346    -0.36500
N380        N  0.17454801  0.46383402  0.53567286    -0.57100
N381        N  0.17626429  0.03708205  0.53592345    -0.36500
N382        N  0.17573005  0.03661817  0.96276190    -0.57100
C383        C  0.16849082  0.43106146  0.96842112     0.27100
C384        C  0.16913878  0.46966162  0.92983334     0.27100
C385        C  0.16803672  0.03102643  0.56823059     0.27100
C386        C  0.16843140  0.06953006  0.52956497     0.27100
C387        C  0.17722491  0.43042241  0.53053675     0.35700
C388        C  0.17734239  0.46898428  0.56907088     0.35700
C389        C  0.17938467  0.03133989  0.92950414     0.35700
C390        C  0.17931738  0.06988949  0.96800810     0.35700
C391        C  0.15740010  0.41616749  0.93890196    -0.21800
C392        C  0.15798437  0.44040996  0.91464671    -0.21800
C393        C  0.15586969  0.06026748  0.58282519    -0.21800
C394        C  0.15625012  0.08446512  0.55852924    -0.21800
C395        C  0.18178403  0.41419593  0.56089072    -0.22900
C396        C  0.18188449  0.43863260  0.58530757    -0.22900
C397        C  0.18549302  0.06144516  0.91349378    -0.22900
C398        C  0.18547567  0.08587691  0.93790279    -0.22800
C399        C  0.17147860  0.41417064  0.99947626    -0.18200
C400        C  0.17278255  0.50068500  0.91306242    -0.18200
C401        C  0.17245881  0.08637278  0.99864369    -0.18200
C402        C  0.17146772  0.50001722  0.58530033    -0.18200
H403        H  0.14979038  0.39041653  0.93505983     0.14700
H404        H  0.15140306  0.43667948  0.88863735     0.14700
H405        H  0.14762211  0.06396044  0.60839444     0.14700
H406        H  0.14875607  0.11025637  0.56202828     0.14700
H407        H  0.18371702  0.38747171  0.56511232     0.13000
H408        H  0.18386045  0.43442066  0.61203105     0.13000
H409        H  0.18849262  0.06554148  0.88688099     0.13000
H410        H  0.18842317  0.11249270  0.93377915     0.13000
H411        H  0.18664437  0.48023012  0.97951581     0.26300
H412        H  0.18746619  0.02029424  0.51946407     0.26200
C413        C  0.16279050  0.49944356  0.62125671     0.80300
N414        N  0.18696251  0.49947461  0.64535102    -0.78000
C415        C  0.17820393  0.49983632  0.67825561     0.82800
N416        N  0.14530551  0.50023760  0.68704355    -0.77900
C417        C  0.12119186  0.50034907  0.66288854     0.82900
N418        N  0.13004538  0.49991773  0.63013550    -0.79700
C419        C  0.33582421  0.12195725  0.99881245     0.80300
N420        N  0.36856967  0.13083707  0.99926056    -0.78000
C421        C  0.37743133  0.16358877  0.99967133     0.82800
N422        N  0.35332185  0.18774636  0.99956536    -0.78500
C423        C  0.32041859  0.17895980  0.99918744     0.82900
N424        N  0.31165408  0.14605179  0.99884379    -0.79700
C425        C  0.50130292  0.12212802  0.83479344     0.80300
N426        N  0.50148767  0.14616132  0.81082901    -0.78000
C427        C  0.50168752  0.17908403  0.81981663     0.82800
N428        N  0.50143096  0.18800228  0.85276873    -0.77900
C429        C  0.50123593  0.16396729  0.87675100     0.82900
N430        N  0.50113282  0.13113505  0.86765014    -0.79700
N431        N  0.46272154  0.17685913  0.96210221    -0.36500
N432        N  0.03588741  0.17625549  0.96252367    -0.57100
N433        N  0.03622641  0.17689654  0.53567479    -0.36500
N434        N  0.46302376  0.17519345  0.53530188    -0.57100
C435        C  0.46904923  0.16902428  0.92964559     0.27100
C436        C  0.43039957  0.16869326  0.96817644     0.27100
C437        C  0.06889355  0.16988115  0.52955328     0.27100
C438        C  0.03029659  0.16918824  0.56813118     0.27100
C439        C  0.03063231  0.17979991  0.92925035     0.35700
C440        C  0.06914932  0.17990653  0.96778522     0.35700
C441        C  0.42963060  0.17803645  0.53015086     0.35700
C442        C  0.46815376  0.17779105  0.56872020     0.35700
C443        C  0.44004530  0.15691828  0.91472185    -0.21800
C444        C  0.41576147  0.15657527  0.93893466    -0.21800
C445        C  0.08412665  0.15892010  0.55885568    -0.21800
C446        C  0.05985995  0.15830789  0.58308699    -0.21800
C447        C  0.06073712  0.18591827  0.91324594    -0.22900
C448        C  0.08515278  0.18596292  0.93766707    -0.22900
C449        C  0.41339321  0.18252964  0.56051019    -0.22900
C450        C  0.43780190  0.18234504  0.58495040    -0.22800
C451        C  0.49997639  0.17297708  0.91278223    -0.18200
C452        C  0.41339251  0.17226777  0.99909907    -0.18200
C453        C  0.49921011  0.17204640  0.58497497    -0.18200
C454        C  0.08563653  0.17342482  0.99850915    -0.18200
H455        H  0.43651192  0.14945542  0.88892621     0.14700
H456        H  0.39017095  0.14838177  0.93525307     0.14700
H457        H  0.11016421  0.15245241  0.56261565     0.14700
H458        H  0.06371622  0.15080800  0.60886633     0.14700
H459        H  0.06485439  0.18883831  0.88662787     0.13000
H460        H  0.11176495  0.18895843  0.93355812     0.13000
H461        H  0.38667223  0.18454099  0.56472104     0.13000
H462        H  0.43357759  0.18424539  0.61167623     0.13000
H463        H  0.47921525  0.18802147  0.97889132     0.26300
H464        H  0.01914764  0.18707831  0.51888701     0.26200
C465        C  0.49866303  0.16326189  0.62091686     0.80300
N466        N  0.49871662  0.18741029  0.64503013    -0.78000
C467        C  0.49933218  0.17863790  0.67792269     0.82800
N468        N  0.49997455  0.14574256  0.68669160    -0.77900
C469        C  0.50007493  0.12163042  0.66254052     0.82900
N470        N  0.49937941  0.13049240  0.62977318    -0.79700
C471        C  0.49741245  0.33548851  0.62137297     0.80300
N472        N  0.49722911  0.31152429  0.64540781    -0.78000
C473        C  0.49697706  0.32051517  0.67832879     0.82800
N474        N  0.49717496  0.35346675  0.68724503    -0.77900
C475        C  0.49736321  0.37744799  0.66321277     0.82900
N476        N  0.49752397  0.36834771  0.63038003    -0.79700
C477        C  0.33513682  0.49808691  0.62159524     0.80300
N478        N  0.36797150  0.49813418  0.63067743    -0.78000
C479        C  0.37699430  0.49796402  0.66352651     0.82800
N480        N  0.35297120  0.49783673  0.68750407    -0.77900
C481        C  0.32004376  0.49770088  0.67852763     0.82900
N482        N  0.31111269  0.49795672  0.64558308    -0.79700
N483        N  0.03590110  0.46278083  0.67615068    -0.36500
N484        N  0.46272845  0.46321230  0.67548836    -0.57100
N485        N  0.46252863  0.03636725  0.67615975    -0.36500
N486        N  0.03572133  0.03601761  0.67441392    -0.57100
C487        C  0.02955965  0.43033205  0.66829834     0.27100
C488        C  0.06822169  0.46885507  0.66799026     0.27100
C489        C  0.42986711  0.03022446  0.66913763     0.27100
C490        C  0.46845632  0.06881950  0.66842975     0.27100
C491        C  0.46798114  0.42994384  0.67907160     0.35700
C492        C  0.42947034  0.46847735  0.67915180     0.35700
C493        C  0.06911204  0.03087097  0.67728800     0.35700
C494        C  0.03058620  0.06943101  0.67707159     0.35700
C495        C  0.05855911  0.41540645  0.65619763    -0.21800
C496        C  0.08285077  0.43961534  0.65586693    -0.21800
C497        C  0.41463269  0.05951494  0.65814853    -0.21800
C498        C  0.43889508  0.08375531  0.65752075    -0.21800
C499        C  0.43787942  0.41394477  0.68522924    -0.22900
C500        C  0.41346644  0.43836664  0.68525903    -0.22900
C501        C  0.08534262  0.06122765  0.68185973    -0.22900
C502        C  0.06093114  0.08566298  0.68169450    -0.22800
C503        C  0.49862695  0.41347399  0.67223449    -0.18200
C504        C  0.08523736  0.49977347  0.67157747    -0.18200
C505        C  0.49953329  0.08568266  0.67131511    -0.18200
C506        C  0.41299139  0.49918992  0.67260883    -0.18200
H507        H  0.06208521  0.38961129  0.64873416     0.14700
H508        H  0.10844042  0.43593175  0.64768098     0.14700
H509        H  0.38859330  0.06326588  0.65169040     0.14700
H510        H  0.43503461  0.10952949  0.65000548     0.14700
H511        H  0.43376197  0.38732883  0.68818212     0.13000
H512        H  0.38685545  0.43426061  0.68826933     0.13000
H513        H  0.11206134  0.06544067  0.68391573     0.13000
H514        H  0.06514855  0.11238773  0.68365639     0.13000
H515        H  0.01941066  0.47956725  0.68732585     0.26300
H516        H  0.47960679  0.01959383  0.68638108     0.26200
C517        C  0.37697546  0.33588891  0.00103862     0.80300
N518        N  0.36788988  0.36872741  0.00097879    -0.78000
C519        C  0.33503399  0.37774281  0.00112772     0.82800
N520        N  0.31106095  0.35370795  0.00124434    -0.77900
C521        C  0.32003927  0.32078263  0.00139237     0.82900
N522        N  0.35298449  0.31186119  0.00116374    -0.79700
C523        C  0.49982575  0.33629944  0.87717396     0.80300
N524        N  0.49976171  0.31213656  0.85306462    -0.78000
C525        C  0.49936222  0.32091208  0.82016114     0.82800
N526        N  0.49895360  0.35381931  0.81139170    -0.77900
C527        C  0.49886707  0.37792520  0.83555966     0.82900
N528        N  0.49933995  0.36905017  0.86830732    -0.79700
C529        C  0.37757398  0.49914683  0.83580883     0.80300
N530        N  0.35346126  0.49923086  0.81165464    -0.78000
C531        C  0.32056289  0.49994903  0.82042070     0.82800
N532        N  0.31179279  0.50065369  0.85331882    -0.77900
C533        C  0.33594409  0.50071930  0.87743505     0.82900
N534        N  0.36870859  0.49993300  0.86857262    -0.79700
N535        N  0.32238679  0.46315733  0.96270589    -0.36500
N536        N  0.32293367  0.46348066  0.53583922    -0.57100
N537        N  0.32249226  0.03667391  0.53635531    -0.36500
N538        N  0.32409525  0.03637919  0.96316188    -0.57100
C539        C  0.32956307  0.43052384  0.96886270     0.27100
C540        C  0.33018328  0.46912102  0.93027336     0.27100
C541        C  0.33035609  0.03031933  0.56879728     0.27100
C542        C  0.33075869  0.06896978  0.53027832     0.27100
C543        C  0.31925890  0.43022376  0.53056321     0.35700
C544        C  0.31924666  0.46874681  0.56909252     0.35700
C545        C  0.32146943  0.03126366  0.92974225     0.35700
C546        C  0.32131196  0.06977672  0.96832675     0.35700
C547        C  0.34073771  0.41535516  0.93961322    -0.21800
C548        C  0.34130182  0.43961627  0.91537668    -0.21800
C549        C  0.34260038  0.05927435  0.58370512    -0.21800
C550        C  0.34298770  0.08356060  0.55949802    -0.21800
C551        C  0.31303038  0.41423248  0.56065140    -0.22900
C552        C  0.31299823  0.43865498  0.58507164    -0.22900
C553        C  0.31695582  0.06162940  0.91352650    -0.22900
C554        C  0.31682697  0.08603139  0.93797598    -0.22800
C555        C  0.32592576  0.41374172  0.99987841    -0.18200
C556        C  0.32718279  0.50018076  0.91339334    -0.18200
C557        C  0.32715342  0.08599563  0.99937468    -0.18200
C558        C  0.32612001  0.49937920  0.58557868    -0.18200
H559        H  0.34734970  0.38935437  0.93588058     0.14700
H560        H  0.34892228  0.43578818  0.88962963     0.14700
H561        H  0.35012485  0.06277625  0.60948568     0.14700
H562        H  0.35127894  0.10912126  0.56317142     0.14700
H563        H  0.30998780  0.38762368  0.56474846     0.13000
H564        H  0.30996198  0.43454823  0.61167804     0.13000
H565        H  0.31506667  0.06586792  0.88680261     0.13000
H566        H  0.31487508  0.11275864  0.93377380     0.13000
H567        H  0.31201242  0.48018193  0.97943849     0.26300
H568        H  0.31123667  0.02022121  0.51958910     0.26200
N569        N  0.03640693  0.46323791  0.82227502    -0.36500
N570        N  0.03600808  0.03639632  0.82278509    -0.57100
N571        N  0.46285831  0.03672381  0.82219979    -0.36500
N572        N  0.46321451  0.46351675  0.82392089    -0.57100
C573        C  0.06883716  0.46961282  0.83018834     0.27100
C574        C  0.03032297  0.43094016  0.83052862     0.27100
C575        C  0.46901648  0.06937232  0.82930474     0.27100
C576        C  0.43042975  0.03077118  0.83001897     0.27100
C577        C  0.06927965  0.03114254  0.81923302     0.35700
C578        C  0.03074512  0.06965193  0.81910063     0.35700
C579        C  0.46837953  0.43012385  0.82105365     0.35700
C580        C  0.42979689  0.46863822  0.82126998     0.35700
C581        C  0.08373300  0.44066487  0.84243965    -0.21800
C582        C  0.05953210  0.41636604  0.84278938    -0.21800
C583        C  0.43976617  0.08456728  0.84044485    -0.21800
C584        C  0.41553117  0.06030144  0.84106835    -0.21800
C585        C  0.08528218  0.06123952  0.81306038    -0.22900
C586        C  0.06085975  0.08565172  0.81299664    -0.22900
C587        C  0.43803059  0.41387882  0.81649076    -0.22900
C588        C  0.41358211  0.43828114  0.81665970    -0.22800
C589        C  0.08570589  0.50052720  0.82615837    -0.18200
C590        C  0.49942425  0.41389675  0.82689068    -0.18200
C591        C  0.41353087  0.49968626  0.82704834    -0.18200
C592        C  0.50004467  0.08613747  0.82567928    -0.18200
H593        H  0.10950657  0.43717313  0.84997946     0.14700
H594        H  0.06320422  0.39080770  0.85107710     0.14700
H595        H  0.43604175  0.11057960  0.84703194     0.14700
H596        H  0.38978885  0.06413792  0.84869944     0.14700
H597        H  0.11190144  0.06535839  0.81014232     0.13000
H598        H  0.06497150  0.11226300  0.80999012     0.13000
H599        H  0.43382963  0.38715597  0.81445343     0.13000
H600        H  0.38685927  0.43404803  0.81472204     0.13000
H601        H  0.01964565  0.47968009  0.81099222     0.26300
H602        H  0.47959936  0.01967538  0.81187546     0.26200
N603        N  0.46229496  0.32298130  0.96247486    -0.36500
N604        N  0.03548114  0.32460972  0.96276554    -0.57100
N605        N  0.03586402  0.32286949  0.53597373    -0.36500
N606        N  0.46273054  0.32348726  0.53563509    -0.57100
C607        C  0.46837042  0.33122444  0.93017384     0.27100
C608        C  0.42985977  0.33087162  0.96883767     0.27100
C609        C  0.06829010  0.33070176  0.53001646     0.27100
C610        C  0.02970846  0.33000981  0.56861574     0.27100
C611        C  0.03032096  0.32179461  0.92936763     0.35700
C612        C  0.06890118  0.32199895  0.96789067     0.35700
C613        C  0.42946361  0.31990317  0.53037052     0.35700
C614        C  0.46799477  0.31976729  0.56888586     0.35700
C615        C  0.43915289  0.34345197  0.91558806    -0.21800
C616        C  0.41495410  0.34309442  0.93988124    -0.21800
C617        C  0.08318608  0.34179769  0.55953451    -0.21800
C618        C  0.05895333  0.34118914  0.58379875    -0.21800
C619        C  0.06067560  0.31730288  0.91312325    -0.22900
C620        C  0.08512200  0.31746353  0.93753057    -0.22900
C621        C  0.41346628  0.31367328  0.56045423    -0.22900
C622        C  0.43788723  0.31360852  0.58487106    -0.22800
C623        C  0.49927237  0.32761770  0.91313999    -0.18200
C624        C  0.41299570  0.32685201  0.99975058    -0.18200
C625        C  0.49868583  0.32637090  0.58538170    -0.18200
C626        C  0.08516133  0.32776356  0.99894723    -0.18200
H627        H  0.43547430  0.35172482  0.89002581     0.14700
H628        H  0.38917509  0.35061061  0.93638012     0.14700
H629        H  0.10892599  0.34944830  0.56336512     0.14700
H630        H  0.06267658  0.34780800  0.60980278     0.14700
H631        H  0.06488158  0.31532536  0.88639887     0.13000
H632        H  0.11184727  0.31557942  0.93329887     0.13000
H633        H  0.38685007  0.31071868  0.56456291     0.13000
H634        H  0.43377845  0.31056469  0.61147650     0.13000
H635        H  0.47906301  0.31173129  0.97892753     0.26300
H636        H  0.01913034  0.31251328  0.51893546     0.26200
O637        O  0.21516741  0.71584923  0.02611108    -0.74300
O638        O  0.28293003  0.78360925  0.02828756    -0.74400
O639        O  0.21496851  0.78380637  0.02723899    -0.74400
O640        O  0.28309043  0.71566698  0.02714655    -0.74500
O641        O  0.28365306  0.71629055  0.47116069    -0.74400
O642        O  0.21545899  0.78436156  0.47125263    -0.74400
O643        O  0.28341805  0.78422407  0.47229917    -0.74400
O644        O  0.21570430  0.71640160  0.47012130    -0.74400
Ni645      Ni  0.24901509  0.74970989  0.02920270     1.25400
Ni646      Ni  0.24957784  0.75034492  0.46919998     1.25400
C647        C  0.20439487  0.70505788  0.99778336     0.87800
C648        C  0.29424039  0.79496359  0.50063073     0.87800
C649        C  0.20409636  0.79520649  0.99925872     0.87800
C650        C  0.29449447  0.70486900  0.49914201     0.88000
O651        O  0.28326870  0.97192215  0.28370830    -0.74300
O652        O  0.21509031  0.97186683  0.21560925    -0.74400
O653        O  0.28304281  0.97077997  0.21574913    -0.74400
O654        O  0.21531536  0.97301171  0.28353972    -0.74500
O655        O  0.21579398  0.52902078  0.28290211    -0.74400
O656        O  0.28351840  0.52676414  0.21512039    -0.74400
O657        O  0.21560136  0.52785156  0.21496026    -0.74400
O658        O  0.28375615  0.52791847  0.28307015    -0.74400
Ni659      Ni  0.24915879  0.96988635  0.24967767     1.25400
Ni660      Ni  0.24969319  0.52989562  0.24899016     1.25400
C661        C  0.29464993  0.99992513  0.29455050     0.87800
C662        C  0.20428050  0.99985520  0.20417473     0.87800
C663        C  0.29437632  0.99843424  0.20440373     0.87800
C664        C  0.20450799  0.00135114  0.29426532     0.88000
O665        O  0.47137087  0.78349289  0.28345166    -0.74300
O666        O  0.47134917  0.71536926  0.21530222    -0.74400
O667        O  0.47253645  0.71557217  0.28325086    -0.74400
O668        O  0.47018589  0.78333895  0.21550336    -0.74500
O669        O  0.02617304  0.78390932  0.21484680    -0.74400
O670        O  0.02852401  0.71623023  0.28267629    -0.74400
O671        O  0.02733528  0.71595537  0.21471202    -0.74400
O672        O  0.02735383  0.78417363  0.28277022    -0.74400
Ni673      Ni  0.46935297  0.74941452  0.24939886     1.25400
Ni674      Ni  0.02935397  0.75008909  0.24872169     1.25400
C675        C  0.49936466  0.79495333  0.29422916     0.87800
C676        C  0.49933879  0.70453979  0.20389286     0.87800
C677        C  0.50088934  0.70487645  0.29404601     0.87800
C678        C  0.49782218  0.79470003  0.20414129     0.88000
C679        C  0.16345200  0.62234688  0.49747429     0.80300
N680        N  0.18749064  0.64632468  0.49735815    -0.78000
C681        C  0.17858141  0.67927267  0.49708199     0.82800
N682        N  0.14565914  0.68826449  0.49718111    -0.77900
C683        C  0.12162043  0.66429562  0.49729480     0.82900
N684        N  0.13062307  0.63144186  0.49748581    -0.79700
C685        C  0.12115845  0.83659275  0.49845866     0.80300
N686        N  0.13004714  0.86935481  0.49926241    -0.78000
C687        C  0.16281952  0.87820400  0.50006866     0.82800
N688        N  0.18695452  0.85407330  0.50000464    -0.77900
C689        C  0.17816188  0.82117653  0.49928372     0.82900
N690        N  0.14525656  0.81242760  0.49854320    -0.79700
C691        C  0.12177157  0.00178273  0.33517762     0.80300
N692        N  0.14576041  0.00188430  0.31115035    -0.78000
C693        C  0.17871024  0.00208226  0.32007195     0.82800
N694        N  0.18769218  0.00193029  0.35299881    -0.77900
C695        C  0.16372036  0.00183566  0.37703125     0.82900
N696        N  0.13086400  0.00171646  0.36801412    -0.79700
N697        N  0.17640612  0.96347048  0.46246946    -0.36500
N698        N  0.17467622  0.96387713  0.03566224    -0.57100
N699        N  0.17617792  0.53701151  0.03600074    -0.36500
N700        N  0.17569015  0.53661568  0.46282890    -0.57100
C701        C  0.16864961  0.93102369  0.46843856     0.27100
C702        C  0.16925290  0.96959788  0.42982281     0.27100
C703        C  0.16788765  0.53092685  0.06828497     0.27100
C704        C  0.16834849  0.56945917  0.02965256     0.27100
C705        C  0.17732322  0.93045425  0.03056531     0.35700
C706        C  0.17745352  0.96906369  0.06905738     0.35700
C707        C  0.17941789  0.53136385  0.42957508     0.35700
C708        C  0.17937705  0.56986553  0.46812732     0.35700
C709        C  0.15759153  0.91609267  0.43892568    -0.21800
C710        C  0.15814047  0.94031953  0.41465384    -0.21800
C711        C  0.15568146  0.56014983  0.08287991    -0.21800
C712        C  0.15611123  0.58436640  0.05860552    -0.21800
C713        C  0.18184187  0.91425879  0.06094022    -0.22900
C714        C  0.18195057  0.93872280  0.08532843    -0.22900
C715        C  0.18567655  0.56146372  0.41361805    -0.22900
C716        C  0.18567836  0.58586680  0.43805939    -0.22800
C717        C  0.17160592  0.91416543  0.49951640    -0.18200
C718        C  0.17282387  0.00062086  0.41303409    -0.18200
C719        C  0.17245093  0.58632851  0.49875731    -0.18200
C720        C  0.17161866  0.00012188  0.08526176    -0.18200
H721        H  0.15000359  0.89033219  0.43510345     0.14700
H722        H  0.15153076  0.93656919  0.38865107     0.14700
H723        H  0.14739225  0.56382254  0.10843828     0.14700
H724        H  0.14864254  0.61015754  0.06211961     0.14700
H725        H  0.18375122  0.88753810  0.06519300     0.13000
H726        H  0.18390772  0.93453621  0.11205725     0.13000
H727        H  0.18876517  0.56557742  0.38701902     0.13000
H728        H  0.18872976  0.61247692  0.43397845     0.13000
H729        H  0.18671757  0.98023613  0.47949970     0.26300
H730        H  0.18743308  0.52024589  0.01954788     0.26200
C731        C  0.16293881  0.99956842  0.12121881     0.80300
N732        N  0.18710182  0.99954976  0.14532539    -0.78000
C733        C  0.17832795  0.99985911  0.17822818     0.82800
N734        N  0.14542128  0.00025652  0.18699697    -0.77900
C735        C  0.12131891  0.00041626  0.16282702     0.82900
N736        N  0.13019106  0.00003611  0.13008134    -0.79700
C737        C  0.33581756  0.62191737  0.49874677     0.80300
N738        N  0.36856865  0.63078033  0.49925494    -0.78000
C739        C  0.37744633  0.66352935  0.49969632     0.82800
N740        N  0.35334828  0.68769766  0.49956227    -0.78500
C741        C  0.32044174  0.67892664  0.49912705     0.82900
N742        N  0.31166135  0.64602413  0.49875376    -0.79700
C743        C  0.50126960  0.62212442  0.33482027     0.80300
N744        N  0.50143025  0.64615941  0.31085804    -0.78000
C745        C  0.50164032  0.67908112  0.31984760     0.82800
N746        N  0.50142472  0.68799923  0.35279980    -0.77900
C747        C  0.50125667  0.66396403  0.37678164     0.82900
N748        N  0.50113617  0.63113075  0.36767835    -0.79700
N749        N  0.46273201  0.67679690  0.46213046    -0.36500
N750        N  0.03588681  0.67624883  0.46255242    -0.57100
N751        N  0.03621390  0.67682417  0.03569278    -0.36500
N752        N  0.46302848  0.67511751  0.03531875    -0.57100
C753        C  0.46907313  0.66895131  0.42968177     0.27100
C754        C  0.43042680  0.66857987  0.46821242     0.27100
C755        C  0.06885970  0.66973476  0.02954851     0.27100
C756        C  0.03025833  0.66902853  0.06812270     0.27100
C757        C  0.03062177  0.67986778  0.42928936     0.35700
C758        C  0.06913890  0.67996480  0.46782753     0.35700
C759        C  0.42964699  0.67805614  0.03015335     0.35700
C760        C  0.46816394  0.67783626  0.06872548     0.35700
C761        C  0.44009043  0.65678291  0.41476876    -0.21800
C762        C  0.41580908  0.65640988  0.43898285    -0.21800
C763        C  0.08405225  0.65862476  0.05881357    -0.21800
C764        C  0.05978225  0.65799365  0.08303979    -0.21800
C765        C  0.06071059  0.68610587  0.41330283    -0.22900
C766        C  0.08512813  0.68614481  0.43772783    -0.22900
C767        C  0.41341999  0.68273310  0.06049113    -0.22900
C768        C  0.43782818  0.68256771  0.08493653    -0.22800
C769        C  0.49998612  0.67297496  0.41281273    -0.18200
C770        C  0.41340917  0.67219882  0.49912143    -0.18200
C771        C  0.49919539  0.67200180  0.08498796    -0.18200
C772        C  0.08562839  0.67338802  0.49853019    -0.18200
H773        H  0.43656343  0.64931790  0.38897534     0.14700
H774        H  0.39022939  0.64818282  0.43530435     0.14700
H775        H  0.11007420  0.65211159  0.06256448     0.14700
H776        H  0.06361891  0.65041102  0.10879701     0.14700
H777        H  0.06481887  0.68910030  0.38669200     0.13000
H778        H  0.11173393  0.68920642  0.43362971     0.13000
H779        H  0.38670488  0.68485790  0.06468665     0.13000
H780        H  0.43361194  0.68459342  0.11165506     0.13000
H781        H  0.47920295  0.68802137  0.47890798     0.26300
H782        H  0.01917192  0.68715262  0.01894565     0.26200
C783        C  0.49862804  0.66322327  0.12093217     0.80300
N784        N  0.49870580  0.68736976  0.14504997    -0.78000
C785        C  0.49933053  0.67859457  0.17794387     0.82800
N786        N  0.49995154  0.64569683  0.18670699    -0.77900
C787        C  0.50002340  0.62158872  0.16255092     0.82900
N788        N  0.49932538  0.63045429  0.12978594    -0.79700
C789        C  0.49744882  0.83547531  0.12138370     0.80300
N790        N  0.49726692  0.81151080  0.14541793    -0.78000
C791        C  0.49707964  0.82050134  0.17833962     0.82800
N792        N  0.49734163  0.85345620  0.18725475    -0.77900
C793        C  0.49753392  0.87743824  0.16321873     0.82900
N794        N  0.49762728  0.86833346  0.13038889    -0.79700
C795        C  0.33529172  0.99812913  0.12168092     0.80300
N796        N  0.36812137  0.99814367  0.13077488    -0.78000
C797        C  0.37713211  0.99794517  0.16362623     0.82800
N798        N  0.35310322  0.99782262  0.18759765    -0.77900
C799        C  0.32017875  0.99771772  0.17861078     0.82900
N800        N  0.31125901  0.99800094  0.14566209    -0.79700
N801        N  0.03603964  0.96281111  0.17606938    -0.36500
N802        N  0.46287956  0.96320723  0.17553494    -0.57100
N803        N  0.46241569  0.53634780  0.17610933    -0.36500
N804        N  0.03561977  0.53597144  0.17449161    -0.57100
C805        C  0.02970828  0.93035608  0.16822898     0.27100
C806        C  0.06834741  0.96890740  0.16787731     0.27100
C807        C  0.42976841  0.53021242  0.16900110     0.27100
C808        C  0.46838386  0.56878331  0.16834426     0.27100
C809        C  0.46814167  0.92993315  0.17907335     0.35700
C810        C  0.42961913  0.96845951  0.17920070     0.35700
C811        C  0.06900691  0.53081626  0.17738303     0.35700
C812        C  0.03049498  0.56938596  0.17713063     0.35700
C813        C  0.05870116  0.91545228  0.15608561    -0.21800
C814        C  0.08297800  0.93967884  0.15572694    -0.21800
C815        C  0.41458598  0.55948754  0.15790812    -0.21800
C816        C  0.43886374  0.58371304  0.15731481    -0.21800
C817        C  0.43804240  0.91391900  0.18520522    -0.22900
C818        C  0.41362369  0.93833441  0.18526255    -0.22900
C819        C  0.08524721  0.56116818  0.18195053    -0.22900
C820        C  0.06084369  0.58561043  0.18176455    -0.22800
C821        C  0.49879351  0.91347396  0.17222267    -0.18200
C822        C  0.08535459  0.99983101  0.17148381    -0.18200
C823        C  0.49945646  0.58564210  0.17131592    -0.18200
C824        C  0.41312402  0.99917847  0.17271234    -0.18200
H825        H  0.06223468  0.88965965  0.14861733     0.14700
H826        H  0.10856103  0.93601240  0.14751293     0.14700
H827        H  0.38857091  0.56323948  0.15135734     0.14700
H828        H  0.43503808  0.60947521  0.14974350     0.14700
H829        H  0.43392876  0.88729785  0.18811902     0.13000
H830        H  0.38701348  0.93421620  0.18826323     0.13000
H831        H  0.11196715  0.56537379  0.18400894     0.13000
H832        H  0.06507152  0.61233493  0.18370470     0.13000
H833        H  0.01955930  0.97958720  0.18727422     0.26300
H834        H  0.47945426  0.51958949  0.18642445     0.26200
C835        C  0.37697368  0.83590128  0.50106221     0.80300
N836        N  0.36787958  0.86873727  0.50103859    -0.78000
C837        C  0.33502259  0.87774837  0.50117654     0.82800
N838        N  0.31105100  0.85370810  0.50124157    -0.77900
C839        C  0.32003484  0.82078114  0.50135185     0.82900
N840        N  0.35298484  0.81186793  0.50113979    -0.79700
C841        C  0.49983891  0.83631901  0.37719166     0.80300
N842        N  0.49976842  0.81214560  0.35308866    -0.78000
C843        C  0.49936839  0.82090983  0.32017904     0.82800
N844        N  0.49896394  0.85381489  0.31140143    -0.77900
C845        C  0.49888887  0.87792713  0.33556307     0.82900
N846        N  0.49936390  0.86906446  0.36831228    -0.79700
C847        C  0.37760207  0.99917418  0.33589457     0.80300
N848        N  0.35348965  0.99923586  0.31174264    -0.78000
C849        C  0.32059270  0.99994475  0.32050654     0.82800
N850        N  0.31182005  0.00066064  0.35340284    -0.77900
C851        C  0.33596969  0.00074547  0.37752017     0.82900
N852        N  0.36873724  0.99996756  0.36866016    -0.79700
N853        N  0.32238604  0.96317990  0.46278727    -0.36500
N854        N  0.32304171  0.96350426  0.03592007    -0.57100
N855        N  0.32239686  0.53664158  0.03627064    -0.36500
N856        N  0.32407874  0.53634929  0.46307739    -0.57100
C857        C  0.32949688  0.93052692  0.46892007     0.27100
C858        C  0.33013245  0.96913260  0.43033946     0.27100
C859        C  0.33017832  0.53029531  0.06873205     0.27100
C860        C  0.33064819  0.56894359  0.03021341     0.27100
C861        C  0.31935629  0.93024480  0.03065330     0.35700
C862        C  0.31941169  0.96877329  0.06918111     0.35700
C863        C  0.32143609  0.53123373  0.42965912     0.35700
C864        C  0.32129163  0.56974584  0.46824553     0.35700
C865        C  0.34056513  0.91533598  0.43964072    -0.21800
C866        C  0.34114210  0.93960337  0.41541059    -0.21800
C867        C  0.34233836  0.55926753  0.08367603    -0.21800
C868        C  0.34277170  0.58355160  0.05946853    -0.21800
C869        C  0.31318874  0.91425662  0.06075505    -0.22900
C870        C  0.31319639  0.93868116  0.08517288    -0.22900
C871        C  0.31690705  0.56159918  0.41344664    -0.22900
C872        C  0.31679232  0.58600133  0.43789752    -0.22800
C873        C  0.32592163  0.91375314  0.49994852    -0.18200
C874        C  0.32719796  0.00020770  0.41347613    -0.18200
C875        C  0.32711994  0.58596220  0.49929787    -0.18200
C876        C  0.32629066  0.99941139  0.08565779    -0.18200
H877        H  0.34710806  0.88931890  0.43588822     0.14700
H878        H  0.34870344  0.93576566  0.38964698     0.14700
H879        H  0.34976413  0.56278395  0.10948322     0.14700
H880        H  0.35101491  0.60912444  0.06316635     0.14700
H881        H  0.31014611  0.88764873  0.06485771     0.13000
H882        H  0.31020163  0.93457590  0.11178442     0.13000
H883        H  0.31500288  0.56583797  0.38672382     0.13000
H884        H  0.31482900  0.61272832  0.43369895     0.13000
H885        H  0.31210815  0.98022757  0.47955063     0.26300
H886        H  0.31121106  0.52017360  0.01947114     0.26200
N887        N  0.03642866  0.96323618  0.32226869    -0.36500
N888        N  0.03596436  0.53639685  0.32281565    -0.57100
N889        N  0.46282699  0.53672072  0.32220487    -0.36500
N890        N  0.46322895  0.96351736  0.32390908    -0.57100
C891        C  0.06886861  0.96959663  0.33015625     0.27100
C892        C  0.03034681  0.93093079  0.33049392     0.27100
C893        C  0.46898055  0.56936333  0.32933842     0.27100
C894        C  0.43039991  0.53075690  0.33001398     0.27100
C895        C  0.06922846  0.53114058  0.31920457     0.35700
C896        C  0.03069045  0.56964525  0.31908259     0.35700
C897        C  0.46838081  0.93011774  0.32110963     0.35700
C898        C  0.42980381  0.96863555  0.32135983     0.35700
C899        C  0.08377086  0.94063357  0.34236829    -0.21800
C900        C  0.05956631  0.91633928  0.34271104    -0.21800
C901        C  0.43972930  0.58454506  0.34049125    -0.21800
C902        C  0.41549686  0.56027449  0.34109386    -0.21800
C903        C  0.08521420  0.56122688  0.31294314    -0.22900
C904        C  0.06078878  0.58563721  0.31288717    -0.22900
C905        C  0.43801464  0.91386542  0.31668918    -0.22900
C906        C  0.41357071  0.93826919  0.31687935    -0.22800
C907        C  0.08574335  0.00051151  0.32614836    -0.18200
C908        C  0.49943886  0.91389459  0.32688821    -0.18200
C909        C  0.41355577  0.99969647  0.32711700    -0.18200
C910        C  0.50000202  0.58613418  0.32570102    -0.18200
H911        H  0.10954864  0.93713199  0.34990084     0.14700
H912        H  0.06324053  0.89077338  0.35097469     0.14700
H913        H  0.43599788  0.61055498  0.34707806     0.14700
H914        H  0.38975048  0.56410326  0.34871546     0.14700
H915        H  0.11182639  0.56534088  0.30995957     0.13000
H916        H  0.06488865  0.61224305  0.30982105     0.13000
H917        H  0.43380094  0.88713803  0.31474505     0.13000
H918        H  0.38684128  0.93403117  0.31505246     0.13000
H919        H  0.01965746  0.97969343  0.31102485     0.26300
H920        H  0.47956590  0.51968409  0.31185505     0.26200
N921        N  0.46230734  0.82302250  0.46249924    -0.36500
N922        N  0.03550628  0.82468916  0.46278931    -0.57100
N923        N  0.03588676  0.82293431  0.03598238    -0.36500
N924        N  0.46274181  0.82349890  0.03565113    -0.57100
C925        C  0.46839738  0.83131330  0.43021287     0.27100
C926        C  0.42988234  0.83095309  0.46887612     0.27100
C927        C  0.06831992  0.83074962  0.03004131     0.27100
C928        C  0.02973498  0.83001705  0.06863457     0.27100
C929        C  0.03034133  0.82184788  0.42939403     0.35700
C930        C  0.06892877  0.82208588  0.46791302     0.35700
C931        C  0.42947476  0.81990440  0.03038832     0.35700
C932        C  0.46801546  0.81976164  0.06889867     0.35700
C933        C  0.43920230  0.84362635  0.41565325    -0.21800
C934        C  0.41500217  0.84326842  0.43994618    -0.21800
C935        C  0.08322448  0.84178096  0.05957878    -0.21800
C936        C  0.05899025  0.84114457  0.08384010    -0.21800
C937        C  0.06069582  0.81734999  0.41315014    -0.22900
C938        C  0.08514644  0.81753463  0.43755459    -0.22900
C939        C  0.41348542  0.81364795  0.06047047    -0.22900
C940        C  0.43791227  0.81358049  0.08488437    -0.22800
C941        C  0.49928957  0.82766184  0.41316624    -0.18200
C942        C  0.41300289  0.82687862  0.49977488    -0.18200
C943        C  0.49871018  0.82636403  0.08539356    -0.18200
C944        C  0.08519210  0.82783916  0.49897161    -0.18200
H945        H  0.43553907  0.85195953  0.39010895     0.14700
H946        H  0.38924059  0.85085412  0.43646288     0.14700
H947        H  0.10897271  0.84939658  0.06342561     0.14700
H948        H  0.06272232  0.84769790  0.10985966     0.14700
H949        H  0.06489886  0.81535295  0.38642672     0.13000
H950        H  0.11187136  0.81564606  0.43332267     0.13000
H951        H  0.38687075  0.81068119  0.06458075     0.13000
H952        H  0.43381031  0.81051864  0.11148877     0.13000
H953        H  0.47905691  0.81170064  0.47892492     0.26300
H954        H  0.01914238  0.81262290  0.01892770     0.26200
O955        O  0.21516731  0.71584927  0.52611104    -0.74300
O956        O  0.28292994  0.78360927  0.52828756    -0.74400
O957        O  0.21496851  0.78380639  0.52723892    -0.74400
O958        O  0.28309037  0.71566697  0.52714665    -0.74500
O959        O  0.28365299  0.71629054  0.97116058    -0.74400
O960        O  0.21545901  0.78436167  0.97125270    -0.74400
O961        O  0.28341801  0.78422416  0.97229917    -0.74400
O962        O  0.21570420  0.71640175  0.97012134    -0.74400
Ni963      Ni  0.24901502  0.74970990  0.52920270     1.25400
Ni964      Ni  0.24957780  0.75034501  0.96919999     1.25400
C965        C  0.20439486  0.70505785  0.49778332     0.87800
C966        C  0.29424043  0.79496361  0.00063072     0.87800
C967        C  0.20409636  0.79520647  0.49925865     0.87800
C968        C  0.29449443  0.70486896  0.99914189     0.88000
O969        O  0.28326861  0.97192206  0.78370830    -0.74300
O970        O  0.21509023  0.97186684  0.71560927    -0.74400
O971        O  0.28304269  0.97077998  0.71574912    -0.74400
O972        O  0.21531532  0.97301169  0.78353975    -0.74500
O973        O  0.21579398  0.52902074  0.78290207    -0.74400
O974        O  0.28351839  0.52676410  0.71512041    -0.74400
O975        O  0.21560137  0.52785156  0.71496023    -0.74400
O976        O  0.28375607  0.52791842  0.78307016    -0.74400
Ni977      Ni  0.24915870  0.96988633  0.74967767     1.25400
Ni978      Ni  0.24969318  0.52989559  0.74899014     1.25400
C979        C  0.29464990  0.99992504  0.79455047     0.87800
C980        C  0.20428046  0.99985519  0.70417469     0.87800
C981        C  0.29437624  0.99843424  0.70440373     0.87800
C982        C  0.20450798  0.00135113  0.79426534     0.88000
O983        O  0.47137086  0.78349290  0.78345162    -0.74300
O984        O  0.47134922  0.71536926  0.71530220    -0.74400
O985        O  0.47253635  0.71557218  0.78325084    -0.74400
O986        O  0.47018593  0.78333888  0.71550330    -0.74500
O987        O  0.02617293  0.78390925  0.71484674    -0.74400
O988        O  0.02852399  0.71623030  0.78267630    -0.74400
O989        O  0.02733525  0.71595535  0.71471206    -0.74400
O990        O  0.02735375  0.78417368  0.78277015    -0.74400
Ni991      Ni  0.46935297  0.74941451  0.74939883     1.25400
Ni992      Ni  0.02935390  0.75008910  0.74872167     1.25400
C993        C  0.49936463  0.79495338  0.79422911     0.87800
C994        C  0.49933884  0.70453978  0.70389284     0.87800
C995        C  0.50088923  0.70487643  0.79404600     0.87800
C996        C  0.49782222  0.79469994  0.70414123     0.88000
C997        C  0.16345200  0.62234690  0.99747429     0.80300
N998        N  0.18749066  0.64632469  0.99735815    -0.78000
C999        C  0.17858143  0.67927268  0.99708202     0.82800
N1000       N  0.14565915  0.68826450  0.99718116    -0.77900
C1001       C  0.12162043  0.66429562  0.99729490     0.82900
N1002       N  0.13062309  0.63144188  0.99748586    -0.79700
C1003       C  0.12115845  0.83659276  0.99845863     0.80300
N1004       N  0.13004713  0.86935481  0.99926239    -0.78000
C1005       C  0.16281951  0.87820400  0.00006864     0.82800
N1006       N  0.18695451  0.85407330  0.00000465    -0.77900
C1007       C  0.17816187  0.82117653  0.99928376     0.82900
N1008       N  0.14525655  0.81242761  0.99854319    -0.79700
C1009       C  0.12177159  0.00178279  0.83517761     0.80300
N1010       N  0.14576043  0.00188437  0.81115034    -0.78000
C1011       C  0.17871025  0.00208229  0.82007197     0.82800
N1012       N  0.18769218  0.00193031  0.85299884    -0.77900
C1013       C  0.16372034  0.00183567  0.87703127     0.82900
N1014       N  0.13086400  0.00171650  0.86801410    -0.79700
N1015       N  0.17640618  0.96347047  0.96246946    -0.36500
N1016       N  0.17467615  0.96387711  0.53566226    -0.57100
N1017       N  0.17617785  0.53701145  0.53600071    -0.36500
N1018       N  0.17569023  0.53661565  0.96282894    -0.57100
C1019       C  0.16864967  0.93102365  0.96843852     0.27100
C1020       C  0.16925296  0.96959787  0.92982280     0.27100
C1021       C  0.16788753  0.53092678  0.56828493     0.27100
C1022       C  0.16834847  0.56945913  0.52965254     0.27100
C1023       C  0.17732319  0.93045423  0.53056535     0.35700
C1024       C  0.17745347  0.96906370  0.56905739     0.35700
C1025       C  0.17941795  0.53136385  0.92957512     0.35700
C1026       C  0.17937699  0.56986553  0.96812734     0.35700
C1027       C  0.15759161  0.91609265  0.93892565    -0.21800
C1028       C  0.15814058  0.94031953  0.91465383    -0.21800
C1029       C  0.15568130  0.56014974  0.58287986    -0.21800
C1030       C  0.15611114  0.58436633  0.55860548    -0.21800
C1031       C  0.18184186  0.91425875  0.56094027    -0.22900
C1032       C  0.18195059  0.93872282  0.58532842    -0.22900
C1033       C  0.18567646  0.56146373  0.91361807    -0.22900
C1034       C  0.18567821  0.58586680  0.93805940    -0.22800
C1035       C  0.17160593  0.91416543  0.99951637    -0.18200
C1036       C  0.17282382  0.00062089  0.91303412    -0.18200
C1037       C  0.17245089  0.58632853  0.99875731    -0.18200
C1038       C  0.17161858  0.00012189  0.58526177    -0.18200
H1039       H  0.15000358  0.89033220  0.93510342     0.14700
H1040       H  0.15153078  0.93656923  0.88865108     0.14700
H1041       H  0.14739208  0.56382242  0.60843822     0.14700
H1042       H  0.14864245  0.61015746  0.56211956     0.14700
H1043       H  0.18375122  0.88753805  0.56519314     0.13000
H1044       H  0.18390786  0.93453629  0.61205723     0.13000
H1045       H  0.18876501  0.56557746  0.88701904     0.13000
H1046       H  0.18872951  0.61247692  0.93397846     0.13000
H1047       H  0.18671752  0.98023609  0.97949968     0.26300
H1048       H  0.18743303  0.52024586  0.51954786     0.26200
C1049       C  0.16293874  0.99956840  0.62121882     0.80300
N1050       N  0.18710178  0.99954964  0.64532536    -0.78000
C1051       C  0.17832794  0.99985901  0.67822816     0.82800
N1052       N  0.14542130  0.00025639  0.68699700    -0.77900
C1053       C  0.12131890  0.00041623  0.66282710     0.82900
N1054       N  0.13019100  0.00003614  0.63008140    -0.79700
C1055       C  0.33581760  0.62191734  0.99874665     0.80300
N1056       N  0.36856867  0.63078034  0.99925477    -0.78000
C1057       C  0.37744631  0.66352937  0.99969624     0.82800
N1058       N  0.35334823  0.68769764  0.99956223    -0.78500
C1059       C  0.32044170  0.67892659  0.99912694     0.82900
N1060       N  0.31166135  0.64602406  0.99875371    -0.79700
C1061       C  0.50126952  0.62212437  0.83482029     0.80300
N1062       N  0.50143013  0.64615936  0.81085805    -0.78000
C1063       C  0.50164018  0.67908108  0.81984759     0.82800
N1064       N  0.50142463  0.68799920  0.85279979    -0.77900
C1065       C  0.50125663  0.66396402  0.87678163     0.82900
N1066       N  0.50113610  0.63113072  0.86767838    -0.79700
N1067       N  0.46273193  0.67679698  0.96213036    -0.36500
N1068       N  0.03588681  0.67624885  0.96255242    -0.57100
N1069       N  0.03621394  0.67682405  0.53569274    -0.36500
N1070       N  0.46302851  0.67511741  0.53531881    -0.57100
C1071       C  0.46907307  0.66895144  0.92968168     0.27100
C1072       C  0.43042676  0.66857997  0.96821234     0.27100
C1073       C  0.06885974  0.66973466  0.52954844     0.27100
C1074       C  0.03025839  0.66902837  0.56812264     0.27100
C1075       C  0.03062181  0.67986770  0.92928934     0.35700
C1076       C  0.06913892  0.67996465  0.96782753     0.35700
C1077       C  0.42964703  0.67805607  0.53015343     0.35700
C1078       C  0.46816401  0.67783619  0.56872553     0.35700
C1079       C  0.44009033  0.65678315  0.91476860    -0.21800
C1080       C  0.41580902  0.65641007  0.93898272    -0.21800
C1081       C  0.08405230  0.65862459  0.55881346    -0.21800
C1082       C  0.05978232  0.65799347  0.58303967    -0.21800
C1083       C  0.06071066  0.68610564  0.91330281    -0.22900
C1084       C  0.08512819  0.68614446  0.93772782    -0.22900
C1085       C  0.41342008  0.68273303  0.56049123    -0.22900
C1086       C  0.43782829  0.68256770  0.58493660    -0.22800
C1087       C  0.49998610  0.67297500  0.91281271    -0.18200
C1088       C  0.41340913  0.67219888  0.99912135    -0.18200
C1089       C  0.49919548  0.67200172  0.58498795    -0.18200
C1090       C  0.08562838  0.67338799  0.99853024    -0.18200
H1091       H  0.43656328  0.64931823  0.88897515     0.14700
H1092       H  0.39022932  0.64818307  0.93530424     0.14700
H1093       H  0.11007426  0.65211144  0.56256441     0.14700
H1094       H  0.06361902  0.65041082  0.60879688     0.14700
H1095       H  0.06481893  0.68910005  0.88669197     0.13000
H1096       H  0.11173401  0.68920592  0.93362970     0.13000
H1097       H  0.38670499  0.68485776  0.56468682     0.13000
H1098       H  0.43361205  0.68459352  0.61165512     0.13000
H1099       H  0.47920288  0.68802150  0.97890792     0.26300
H1100       H  0.01917195  0.68715255  0.51894565     0.26200
C1101       C  0.49862818  0.66322323  0.62093217     0.80300
N1102       N  0.49870589  0.68736974  0.64504995    -0.78000
C1103       C  0.49933052  0.67859456  0.67794385     0.82800
N1104       N  0.49995146  0.64569681  0.68670698    -0.77900
C1105       C  0.50002344  0.62158869  0.66255091     0.82900
N1106       N  0.49932551  0.63045426  0.62978594    -0.79700
C1107       C  0.49744876  0.83547531  0.62138368     0.80300
N1108       N  0.49726686  0.81151077  0.64541788    -0.78000
C1109       C  0.49707968  0.82050128  0.67833958     0.82800
N1110       N  0.49734175  0.85345614  0.68725474    -0.77900
C1111       C  0.49753393  0.87743821  0.66321874     0.82900
N1112       N  0.49762721  0.86833346  0.63038890    -0.79700
C1113       C  0.33529172  0.99812907  0.62168095     0.80300
N1114       N  0.36812136  0.99814371  0.63077493    -0.78000
C1115       C  0.37713209  0.99794526  0.66362628     0.82800
N1116       N  0.35310319  0.99782267  0.68759771    -0.77900
C1117       C  0.32017872  0.99771767  0.67861082     0.82900
N1118       N  0.31125900  0.99800079  0.64566212    -0.79700
N1119       N  0.03603964  0.96281111  0.67606951    -0.36500
N1120       N  0.46287949  0.96320719  0.67553493    -0.57100
N1121       N  0.46241578  0.53634772  0.67610932    -0.36500
N1122       N  0.03561975  0.53597141  0.67449160    -0.57100
C1123       C  0.02970832  0.93035604  0.66822907     0.27100
C1124       C  0.06834744  0.96890738  0.66787752     0.27100
C1125       C  0.42976849  0.53021238  0.66900110     0.27100
C1126       C  0.46838392  0.56878326  0.66834424     0.27100
C1127       C  0.46814159  0.92993310  0.67907333     0.35700
C1128       C  0.42961907  0.96845950  0.67920068     0.35700
C1129       C  0.06900687  0.53081623  0.67738302     0.35700
C1130       C  0.03049499  0.56938593  0.67713062     0.35700
C1131       C  0.05870121  0.91545225  0.65608576    -0.21800
C1132       C  0.08297803  0.93967883  0.65572717    -0.21800
C1133       C  0.41458606  0.55948749  0.65790811    -0.21800
C1134       C  0.43886380  0.58371300  0.65731477    -0.21800
C1135       C  0.43804228  0.91391895  0.68520517    -0.22900
C1136       C  0.41362359  0.93833439  0.68526249    -0.22900
C1137       C  0.08524717  0.56116814  0.68195051    -0.22900
C1138       C  0.06084370  0.58561038  0.68176450    -0.22800
C1139       C  0.49879349  0.91347392  0.67222270    -0.18200
C1140       C  0.08535461  0.99983101  0.67148397    -0.18200
C1141       C  0.49945651  0.58564205  0.67131591    -0.18200
C1142       C  0.41312399  0.99917851  0.67271238    -0.18200
H1143       H  0.06223479  0.88965962  0.64861745     0.14700
H1144       H  0.10856108  0.93601243  0.64751321     0.14700
H1145       H  0.38857099  0.56323937  0.65135736     0.14700
H1146       H  0.43503808  0.60947516  0.64974343     0.14700
H1147       H  0.43392858  0.88729780  0.68811892     0.13000
H1148       H  0.38701336  0.93421620  0.68826311     0.13000
H1149       H  0.11196710  0.56537377  0.68400890     0.13000
H1150       H  0.06507157  0.61233487  0.68370459     0.13000
H1151       H  0.01955931  0.97958719  0.68727422     0.26300
H1152       H  0.47945432  0.51958940  0.68642436     0.26200
C1153       C  0.37697371  0.83590128  0.00106225     0.80300
N1154       N  0.36787960  0.86873726  0.00103874    -0.78000
C1155       C  0.33502262  0.87774835  0.00117662     0.82800
N1156       N  0.31105104  0.85370807  0.00124157    -0.77900
C1157       C  0.32003488  0.82078112  0.00135184     0.82900
N1158       N  0.35298488  0.81186791  0.00113978    -0.79700
C1159       C  0.49983888  0.83631900  0.87719165     0.80300
N1160       N  0.49976829  0.81214561  0.85308863    -0.78000
C1161       C  0.49936832  0.82090987  0.82017901     0.82800
N1162       N  0.49896396  0.85381493  0.81140142    -0.77900
C1163       C  0.49888890  0.87792716  0.83556307     0.82900
N1164       N  0.49936393  0.86906447  0.86831228    -0.79700
C1165       C  0.37760209  0.99917420  0.83589452     0.80300
N1166       N  0.35348965  0.99923588  0.81174259    -0.78000
C1167       C  0.32059271  0.99994468  0.82050650     0.82800
N1168       N  0.31182009  0.00066063  0.85340281    -0.77900
C1169       C  0.33596975  0.00074540  0.87752012     0.82900
N1170       N  0.36873729  0.99996748  0.86866011    -0.79700
N1171       N  0.32238606  0.96317988  0.96278725    -0.36500
N1172       N  0.32304175  0.96350425  0.53592008    -0.57100
N1173       N  0.32239674  0.53664155  0.53627068    -0.36500
N1174       N  0.32407880  0.53634925  0.96307729    -0.57100
C1175       C  0.32949690  0.93052690  0.96892010     0.27100
C1176       C  0.33013253  0.96913255  0.93033946     0.27100
C1177       C  0.33017822  0.53029525  0.56873209     0.27100
C1178       C  0.33064805  0.56894360  0.53021353     0.27100
C1179       C  0.31935632  0.93024480  0.53065327     0.35700
C1180       C  0.31941179  0.96877325  0.56918112     0.35700
C1181       C  0.32143612  0.53123366  0.92965903     0.35700
C1182       C  0.32129174  0.56974580  0.96824541     0.35700
C1183       C  0.34056522  0.91533592  0.93964079    -0.21800
C1184       C  0.34114223  0.93960329  0.91541065    -0.21800
C1185       C  0.34233823  0.55926744  0.58367612    -0.21800
C1186       C  0.34277153  0.58355159  0.55946868    -0.21800
C1187       C  0.31318881  0.91425660  0.56075500    -0.22900
C1188       C  0.31319652  0.93868110  0.58517287    -0.22900
C1189       C  0.31690710  0.56159911  0.91344649    -0.22900
C1190       C  0.31679242  0.58600129  0.93789737    -0.22800
C1191       C  0.32592163  0.91375312  0.99994856    -0.18200
C1192       C  0.32719801  0.00020761  0.91347606    -0.18200
C1193       C  0.32712005  0.58596216  0.99929775    -0.18200
C1194       C  0.32629068  0.99941136  0.58565783    -0.18200
H1195       H  0.34710817  0.88931882  0.93588832     0.14700
H1196       H  0.34870357  0.93576559  0.88964703     0.14700
H1197       H  0.34976398  0.56278373  0.60948334     0.14700
H1198       H  0.35101469  0.60912445  0.56316658     0.14700
H1199       H  0.31014623  0.88764871  0.56485766     0.13000
H1200       H  0.31020179  0.93457579  0.61178439     0.13000
H1201       H  0.31500298  0.56583791  0.88672365     0.13000
H1202       H  0.31482914  0.61272828  0.93369881     0.13000
H1203       H  0.31210814  0.98022761  0.97955059     0.26300
H1204       H  0.31121098  0.52017359  0.51947119     0.26200
N1205       N  0.03642868  0.96323623  0.82226872    -0.36500
N1206       N  0.03596436  0.53639681  0.82281563    -0.57100
N1207       N  0.46282699  0.53672066  0.82220486    -0.36500
N1208       N  0.46322898  0.96351741  0.82390903    -0.57100
C1209       C  0.06886867  0.96959664  0.83015623     0.27100
C1210       C  0.03034686  0.93093080  0.83049386     0.27100
C1211       C  0.46898051  0.56936330  0.82933830     0.27100
C1212       C  0.43039989  0.53075685  0.83001389     0.27100
C1213       C  0.06922848  0.53114057  0.81920472     0.35700
C1214       C  0.03069046  0.56964521  0.81908260     0.35700
C1215       C  0.46838084  0.93011779  0.82110961     0.35700
C1216       C  0.42980383  0.96863557  0.82135986     0.35700
C1217       C  0.08377093  0.94063356  0.84236821    -0.21800
C1218       C  0.05956637  0.91633927  0.84271086    -0.21800
C1219       C  0.43972923  0.58454509  0.84049098    -0.21800
C1220       C  0.41549680  0.56027448  0.84109359    -0.21800
C1221       C  0.08521423  0.56122689  0.81294342    -0.22900
C1222       C  0.06078881  0.58563720  0.81288737    -0.22900
C1223       C  0.43801468  0.91386546  0.81668925    -0.22900
C1224       C  0.41357072  0.93826920  0.81687950    -0.22800
C1225       C  0.08574338  0.00051154  0.82614835    -0.18200
C1226       C  0.49943890  0.91389463  0.82688820    -0.18200
C1227       C  0.41355580  0.99969650  0.82711696    -0.18200
C1228       C  0.50000201  0.58613412  0.82570104    -0.18200
H1229       H  0.10954871  0.93713195  0.84990080     0.14700
H1230       H  0.06324060  0.89077332  0.85097439     0.14700
H1231       H  0.43599782  0.61055503  0.84707778     0.14700
H1232       H  0.38975040  0.56410322  0.84871512     0.14700
H1233       H  0.11182642  0.56534088  0.80995992     0.13000
H1234       H  0.06488869  0.61224304  0.80982131     0.13000
H1235       H  0.43380103  0.88713806  0.81474515     0.13000
H1236       H  0.38684128  0.93403117  0.81505277     0.13000
H1237       H  0.01965747  0.97969348  0.81102503     0.26300
H1238       H  0.47956596  0.51968399  0.81185521     0.26200
N1239       N  0.46230732  0.82302241  0.96249920    -0.36500
N1240       N  0.03550628  0.82468925  0.96278929    -0.57100
N1241       N  0.03588672  0.82293429  0.53598237    -0.36500
N1242       N  0.46274180  0.82349882  0.53565112    -0.57100
C1243       C  0.46839740  0.83131335  0.93021289     0.27100
C1244       C  0.42988238  0.83095312  0.96887614     0.27100
C1245       C  0.06831989  0.83074965  0.53004131     0.27100
C1246       C  0.02973494  0.83001710  0.56863455     0.27100
C1247       C  0.03034134  0.82184788  0.92939401     0.35700
C1248       C  0.06892876  0.82208590  0.96791301     0.35700
C1249       C  0.42947476  0.81990428  0.53038830     0.35700
C1250       C  0.46801546  0.81976159  0.56889867     0.35700
C1251       C  0.43920237  0.84362660  0.91565333    -0.21800
C1252       C  0.41500225  0.84326860  0.93994625    -0.21800
C1253       C  0.08322444  0.84178106  0.55957875    -0.21800
C1254       C  0.05899021  0.84114466  0.58384006    -0.21800
C1255       C  0.06069582  0.81734991  0.91315014    -0.22900
C1256       C  0.08514644  0.81753453  0.93755461    -0.22900
C1257       C  0.41348547  0.81364782  0.56047047    -0.22900
C1258       C  0.43791230  0.81358040  0.58488438    -0.22800
C1259       C  0.49928955  0.82766181  0.91316622    -0.18200
C1260       C  0.41300291  0.82687865  0.99977489    -0.18200
C1261       C  0.49871015  0.82636406  0.58539355    -0.18200
C1262       C  0.08519211  0.82783918  0.99897160    -0.18200
H1263       H  0.43553914  0.85195994  0.89010910     0.14700
H1264       H  0.38924070  0.85085434  0.93646296     0.14700
H1265       H  0.10897269  0.84939671  0.56342556     0.14700
H1266       H  0.06272224  0.84769800  0.60985962     0.14700
H1267       H  0.06489887  0.81535280  0.88642673     0.13000
H1268       H  0.11187136  0.81564586  0.93332273     0.13000
H1269       H  0.38687082  0.81068112  0.56458078     0.13000
H1270       H  0.43381031  0.81051861  0.61148878     0.13000
H1271       H  0.47905687  0.81170030  0.97892481     0.26300
H1272       H  0.01914236  0.81262284  0.51892775     0.26200
O1273       O  0.71510998  0.21591864  0.02607979    -0.74300
O1274       O  0.78290623  0.28363413  0.02831330    -0.74400
O1275       O  0.71494485  0.28386987  0.02719736    -0.74400
O1276       O  0.78302891  0.21569160  0.02717975    -0.74500
O1277       O  0.78365464  0.21632331  0.47119482    -0.74400
O1278       O  0.71548001  0.28441006  0.47121098    -0.74400
O1279       O  0.78343574  0.28424709  0.47232443    -0.74400
O1280       O  0.71571315  0.21645003  0.47008994    -0.74400
Ni1281     Ni  0.74897148  0.24975704  0.02919997     1.25400
Ni1282     Ni  0.74959146  0.25038405  0.46919685     1.25400
C1283       C  0.70437607  0.20511439  0.99774322     0.87800
C1284       C  0.79424205  0.29497841  0.50066345     0.87800
C1285       C  0.70409242  0.29525845  0.99920516     0.87800
C1286       C  0.79446195  0.20489475  0.49918579     0.88000
O1287       O  0.78321373  0.47193046  0.28364464    -0.74300
O1288       O  0.71497861  0.47186419  0.21561541    -0.74400
O1289       O  0.78292157  0.47077343  0.21568620    -0.74400
O1290       O  0.71525584  0.47303167  0.28354284    -0.74500
O1291       O  0.71584131  0.02900147  0.28291144    -0.74400
O1292       O  0.78363367  0.02677073  0.21519608    -0.74400
O1293       O  0.71571354  0.02785333  0.21496927    -0.74400
O1294       O  0.78380108  0.02791071  0.28314687    -0.74400
Ni1295     Ni  0.74907148  0.46989138  0.24964928     1.25400
Ni1296     Ni  0.74977340  0.02989056  0.24903353     1.25400
C1297       C  0.79461096  0.49993301  0.29447026     0.87800
C1298       C  0.70416380  0.49984910  0.20418274     0.87800
C1299       C  0.79425035  0.49842418  0.20432755     0.87800
C1300       C  0.70446388  0.50137626  0.29427319     0.88000
O1301       O  0.97136022  0.28348728  0.28345589    -0.74300
O1302       O  0.97133905  0.21538758  0.21529090    -0.74400
O1303       O  0.97255962  0.21556907  0.28323731    -0.74400
O1304       O  0.97012758  0.28335079  0.21551411    -0.74500
O1305       O  0.52611439  0.28395339  0.21482274    -0.74400
O1306       O  0.52854615  0.21625010  0.28263034    -0.74400
O1307       O  0.52732487  0.21601228  0.21466772    -0.74400
O1308       O  0.52734303  0.28419709  0.28274093    -0.74400
Ni1309     Ni  0.96933884  0.24941860  0.24939809     1.25400
Ni1310     Ni  0.52933986  0.25012666  0.24868567     1.25400
C1311       C  0.99935520  0.29496221  0.29421304     0.87800
C1312       C  0.99933061  0.20458198  0.20386437     0.87800
C1313       C  0.00092192  0.20488119  0.29401375     0.87800
C1314       C  0.99774988  0.29472314  0.20413270     0.88000
C1315       C  0.66345734  0.12239236  0.49736275     0.80300
N1316       N  0.68749257  0.14637507  0.49724745    -0.78000
C1317       C  0.67857561  0.17932267  0.49702319     0.82800
N1318       N  0.64565507  0.18830845  0.49717280    -0.77900
C1319       C  0.62162384  0.16433573  0.49728154     0.82900
N1320       N  0.63062834  0.13148316  0.49742236    -0.79700
C1321       C  0.62111498  0.33655330  0.49841736     0.80300
N1322       N  0.62996655  0.36932443  0.49921187    -0.78000
C1323       C  0.66272867  0.37820688  0.49999726     0.82800
N1324       N  0.68689033  0.35410499  0.49992384    -0.77900
C1325       C  0.67813384  0.32120041  0.49920600     0.82900
N1326       N  0.64523868  0.31241477  0.49848728    -0.79700
C1327       C  0.62173270  0.50182551  0.33519473     0.80300
N1328       N  0.64572241  0.50190417  0.31116936    -0.78000
C1329       C  0.67867189  0.50212374  0.32008950     0.82800
N1330       N  0.68765454  0.50201315  0.35301890    -0.77900
C1331       C  0.66368198  0.50194425  0.37705423     0.82900
N1332       N  0.63082460  0.50180149  0.36803304    -0.79700
N1333       N  0.67628672  0.46349947  0.46247347    -0.36500
N1334       N  0.67454804  0.46383404  0.03567286    -0.57100
N1335       N  0.67626428  0.03708206  0.03592345    -0.36500
N1336       N  0.67573010  0.03661812  0.46276189    -0.57100
C1337       C  0.66849088  0.43106146  0.46842114     0.27100
C1338       C  0.66913878  0.46966163  0.42983334     0.27100
C1339       C  0.66803680  0.03102642  0.06823057     0.27100
C1340       C  0.66843141  0.06953006  0.02956498     0.27100
C1341       C  0.67722490  0.43042243  0.03053674     0.35700
C1342       C  0.67734234  0.46898429  0.06907088     0.35700
C1343       C  0.67938473  0.03133983  0.42950413     0.35700
C1344       C  0.67931739  0.06988945  0.46800808     0.35700
C1345       C  0.65740022  0.41616747  0.43890198    -0.21800
C1346       C  0.65798445  0.44040993  0.41464672    -0.21800
C1347       C  0.65586986  0.06026748  0.08282522    -0.21800
C1348       C  0.65625021  0.08446512  0.05852929    -0.21800
C1349       C  0.68178393  0.41419592  0.06089071    -0.22900
C1350       C  0.68188433  0.43863259  0.08530757    -0.22900
C1351       C  0.68549305  0.06144511  0.41349380    -0.22900
C1352       C  0.68547568  0.08587686  0.43790279    -0.22800
C1353       C  0.67147861  0.41417062  0.49947629    -0.18200
C1354       C  0.67278249  0.50068502  0.41306240    -0.18200
C1355       C  0.67245878  0.08637275  0.49864365    -0.18200
C1356       C  0.67146768  0.50001722  0.08530033    -0.18200
H1357       H  0.64979059  0.39041650  0.43505985     0.14700
H1358       H  0.65140314  0.43667941  0.38863737     0.14700
H1359       H  0.64762243  0.06396049  0.10839450     0.14700
H1360       H  0.64875618  0.11025635  0.06202844     0.14700
H1361       H  0.68371689  0.38747171  0.06511232     0.13000
H1362       H  0.68386013  0.43442062  0.11203106     0.13000
H1363       H  0.68849260  0.06554148  0.38688103     0.13000
H1364       H  0.68842314  0.11249265  0.43377911     0.13000
H1365       H  0.68664434  0.48023018  0.47951584     0.26300
H1366       H  0.68746620  0.02029420  0.01946402     0.26200
C1367       C  0.66279048  0.49944353  0.12125670     0.80300
N1368       N  0.68696250  0.49947453  0.14535099    -0.78000
C1369       C  0.67820393  0.49983630  0.17825559     0.82800
N1370       N  0.64530552  0.50023767  0.18704354    -0.77900
C1371       C  0.62119186  0.50034907  0.16288852     0.82900
N1372       N  0.63004537  0.49991766  0.13013549    -0.79700
C1373       C  0.83582411  0.12195725  0.49881260     0.80300
N1374       N  0.86856959  0.13083701  0.49926069    -0.78000
C1375       C  0.87743130  0.16358869  0.49967150     0.82800
N1376       N  0.85332184  0.18774631  0.49956556    -0.78500
C1377       C  0.82041856  0.17895980  0.49918750     0.82900
N1378       N  0.81165401  0.14605182  0.49884385    -0.79700
C1379       C  0.00130295  0.12212798  0.33479344     0.80300
N1380       N  0.00148770  0.14616131  0.31082902    -0.78000
C1381       C  0.00168753  0.17908402  0.31981666     0.82800
N1382       N  0.00143097  0.18800224  0.35276878    -0.77900
C1383       C  0.00123592  0.16396722  0.37675103     0.82900
N1384       N  0.00113283  0.13113498  0.36765014    -0.79700
N1385       N  0.96272149  0.17685904  0.46210226    -0.36500
N1386       N  0.53588742  0.17625547  0.46252361    -0.57100
N1387       N  0.53622636  0.17689660  0.03567481    -0.36500
N1388       N  0.96302366  0.17519348  0.03530181    -0.57100
C1389       C  0.96904922  0.16902411  0.42964566     0.27100
C1390       C  0.93039955  0.16869310  0.46817654     0.27100
C1391       C  0.56889350  0.16988112  0.02955335     0.27100
C1392       C  0.53029652  0.16918821  0.06813117     0.27100
C1393       C  0.53063224  0.17979999  0.42925031     0.35700
C1394       C  0.56914932  0.17990661  0.46778513     0.35700
C1395       C  0.92963052  0.17803648  0.03015072     0.35700
C1396       C  0.96815359  0.17779108  0.06872015     0.35700
C1397       C  0.94004532  0.15691800  0.41472197    -0.21800
C1398       C  0.91576149  0.15657499  0.43893479    -0.21800
C1399       C  0.58412657  0.15891997  0.05885573    -0.21800
C1400       C  0.55985984  0.15830777  0.08308700    -0.21800
C1401       C  0.56073698  0.18591856  0.41324584    -0.22900
C1402       C  0.58515268  0.18596320  0.43766696    -0.22900
C1403       C  0.91339308  0.18252963  0.06051002    -0.22900
C1404       C  0.93780168  0.18234500  0.08495031    -0.22800
C1405       C  0.99997637  0.17297699  0.41278226    -0.18200
C1406       C  0.91339249  0.17226765  0.49909918    -0.18200
C1407       C  0.99920994  0.17204649  0.08497495    -0.18200
C1408       C  0.58563659  0.17342483  0.49850905    -0.18200
H1409       H  0.93651197  0.14945506  0.38892636     0.14700
H1410       H  0.89017100  0.14838139  0.43525319     0.14700
H1411       H  0.61016413  0.15245221  0.06261572     0.14700
H1412       H  0.56371605  0.15080784  0.10886632     0.14700
H1413       H  0.56485419  0.18883878  0.38662777     0.13000
H1414       H  0.61176481  0.18895889  0.43355801     0.13000
H1415       H  0.88667209  0.18454096  0.06472074     0.13000
H1416       H  0.93357727  0.18424531  0.11167615     0.13000
H1417       H  0.97921517  0.18802151  0.47889133     0.26300
H1418       H  0.51914765  0.18707846  0.01888706     0.26200
C1419       C  0.99866284  0.16326194  0.12091682     0.80300
N1420       N  0.99871657  0.18741032  0.14503012    -0.78000
C1421       C  0.99933213  0.17863790  0.17792268     0.82800
N1422       N  0.99997443  0.14574253  0.18669153    -0.77900
C1423       C  0.00007482  0.12163042  0.16254042     0.82900
N1424       N  0.99937922  0.13049245  0.12977309    -0.79700
C1425       C  0.99741245  0.33548855  0.12137297     0.80300
N1426       N  0.99722912  0.31152433  0.14540782    -0.78000
C1427       C  0.99697707  0.32051520  0.17832880     0.82800
N1428       N  0.99717496  0.35346678  0.18724505    -0.77900
C1429       C  0.99736320  0.37744802  0.16321278     0.82900
N1430       N  0.99752397  0.36834774  0.13038004    -0.79700
C1431       C  0.83513683  0.49808697  0.12159521     0.80300
N1432       N  0.86797152  0.49813419  0.13067741    -0.78000
C1433       C  0.87699430  0.49796399  0.16352649     0.82800
N1434       N  0.85297117  0.49783667  0.18750404    -0.77900
C1435       C  0.82004374  0.49770086  0.17852759     0.82900
N1436       N  0.81111269  0.49795673  0.14558304    -0.79700
N1437       N  0.53590115  0.46278081  0.17615061    -0.36500
N1438       N  0.96272846  0.46321237  0.17548833    -0.57100
N1439       N  0.96252861  0.03636721  0.17615950    -0.36500
N1440       N  0.53572132  0.03601760  0.17441369    -0.57100
C1441       C  0.52955964  0.43033207  0.16829822     0.27100
C1442       C  0.56822170  0.46885508  0.16799013     0.27100
C1443       C  0.92986705  0.03022444  0.16913747     0.27100
C1444       C  0.96845625  0.06881950  0.16842955     0.27100
C1445       C  0.96798119  0.42994392  0.17907166     0.35700
C1446       C  0.92947037  0.46847741  0.17915188     0.35700
C1447       C  0.56911202  0.03087096  0.17728790     0.35700
C1448       C  0.53058618  0.06943100  0.17707143     0.35700
C1449       C  0.55855907  0.41540651  0.15619741    -0.21800
C1450       C  0.58285075  0.43961536  0.15586668    -0.21800
C1451       C  0.91463259  0.05951493  0.15814846    -0.21800
C1452       C  0.93889497  0.08375533  0.15752066    -0.21800
C1453       C  0.93787949  0.41394489  0.18522948    -0.22900
C1454       C  0.91346650  0.43836673  0.18525926    -0.22900
C1455       C  0.58534261  0.06122765  0.18185978    -0.22900
C1456       C  0.56093110  0.08566297  0.18169450    -0.22800
C1457       C  0.99862696  0.41347403  0.17223447    -0.18200
C1458       C  0.58523737  0.49977348  0.17157742    -0.18200
C1459       C  0.99953322  0.08568264  0.17131492    -0.18200
C1460       C  0.91299138  0.49918995  0.17260885    -0.18200
H1461       H  0.56208513  0.38961136  0.14873391     0.14700
H1462       H  0.60844037  0.43593172  0.14768065     0.14700
H1463       H  0.88859316  0.06326586  0.15169045     0.14700
H1464       H  0.93503451  0.10952954  0.15000545     0.14700
H1465       H  0.93376207  0.38732897  0.18818245     0.13000
H1466       H  0.88685553  0.43426067  0.18826966     0.13000
H1467       H  0.61206133  0.06544065  0.18391587     0.13000
H1468       H  0.56514844  0.11238773  0.18365651     0.13000
H1469       H  0.51941076  0.47956720  0.18732594     0.26300
H1470       H  0.97960679  0.01959380  0.18638070     0.26200
C1471       C  0.87697548  0.33588889  0.50103860     0.80300
N1472       N  0.86788992  0.36872740  0.50097876    -0.78000
C1473       C  0.83503403  0.37774281  0.50112767     0.82800
N1474       N  0.81106100  0.35370795  0.50124432    -0.77900
C1475       C  0.82003929  0.32078263  0.50139236     0.82900
N1476       N  0.85298451  0.31186117  0.50116372    -0.79700
C1477       C  0.99982576  0.33629946  0.37717399     0.80300
N1478       N  0.99976173  0.31213658  0.35306464    -0.78000
C1479       C  0.99936217  0.32091211  0.32016117     0.82800
N1480       N  0.99895340  0.35381934  0.31139173    -0.77900
C1481       C  0.99886690  0.37792522  0.33555968     0.82900
N1482       N  0.99933989  0.36905019  0.36830734    -0.79700
C1483       C  0.87757397  0.49914685  0.33580886     0.80300
N1484       N  0.85346126  0.49923081  0.31165467    -0.78000
C1485       C  0.82056289  0.49994905  0.32042072     0.82800
N1486       N  0.81179279  0.50065381  0.35331885    -0.77900
C1487       C  0.83594408  0.50071939  0.37743508     0.82900
N1488       N  0.86870858  0.49993301  0.36857265    -0.79700
N1489       N  0.82238676  0.46315739  0.46270590    -0.36500
N1490       N  0.82293367  0.46348074  0.03583921    -0.57100
N1491       N  0.82249230  0.03667389  0.03635523    -0.36500
N1492       N  0.82409518  0.03637928  0.46316204    -0.57100
C1493       C  0.82956312  0.43052392  0.46886272     0.27100
C1494       C  0.83018332  0.46912112  0.43027341     0.27100
C1495       C  0.83035615  0.03031935  0.06879721     0.27100
C1496       C  0.83075882  0.06896974  0.03027819     0.27100
C1497       C  0.81925885  0.43022382  0.03056324     0.35700
C1498       C  0.81924665  0.46874692  0.06909251     0.35700
C1499       C  0.82146940  0.03126378  0.42974241     0.35700
C1500       C  0.82131178  0.06977681  0.46832693     0.35700
C1501       C  0.84073792  0.41535531  0.43961327    -0.21800
C1502       C  0.84130202  0.43961643  0.41537674    -0.21800
C1503       C  0.84260055  0.05927435  0.08370496    -0.21800
C1504       C  0.84298794  0.08356057  0.05949782    -0.21800
C1505       C  0.81303025  0.41423258  0.06065143    -0.22900
C1506       C  0.81299818  0.43865510  0.08507164    -0.22900
C1507       C  0.81695575  0.06162953  0.41352673    -0.22900
C1508       C  0.81682678  0.08603152  0.43797619    -0.22800
C1509       C  0.82592577  0.41374172  0.49987838    -0.18200
C1510       C  0.82718278  0.50018085  0.41339338    -0.18200
C1511       C  0.82715325  0.08599569  0.49937484    -0.18200
C1512       C  0.82612002  0.49937931  0.08557866    -0.18200
H1513       H  0.84735001  0.38935455  0.43588064     0.14700
H1514       H  0.84892256  0.43578836  0.38962971     0.14700
H1515       H  0.85012504  0.06277624  0.10948550     0.14700
H1516       H  0.85127928  0.10912121  0.06317121     0.14700
H1517       H  0.80998760  0.38762380  0.06474851     0.13000
H1518       H  0.80996197  0.43454839  0.11167805     0.13000
H1519       H  0.81506662  0.06586806  0.38680286     0.13000
H1520       H  0.81487482  0.11275877  0.43377400     0.13000
H1521       H  0.81201226  0.48018196  0.47943849     0.26300
H1522       H  0.81123666  0.02022120  0.01958911     0.26200
N1523       N  0.53640684  0.46323796  0.32227508    -0.36500
N1524       N  0.53600807  0.03639630  0.32278507    -0.57100
N1525       N  0.96285830  0.03672378  0.32219990    -0.36500
N1526       N  0.96321447  0.46351682  0.32392102    -0.57100
C1527       C  0.56883710  0.46961286  0.33018842     0.27100
C1528       C  0.53032294  0.43094017  0.33052865     0.27100
C1529       C  0.96901649  0.06937227  0.32930485     0.27100
C1530       C  0.93042973  0.03077114  0.33001909     0.27100
C1531       C  0.56927963  0.03114250  0.31923297     0.35700
C1532       C  0.53074511  0.06965190  0.31910057     0.35700
C1533       C  0.96837945  0.43012393  0.32105366     0.35700
C1534       C  0.92979687  0.46863834  0.32126991     0.35700
C1535       C  0.58373291  0.44066496  0.34243979    -0.21800
C1536       C  0.55953206  0.41636608  0.34278941    -0.21800
C1537       C  0.93976618  0.08456723  0.34044494    -0.21800
C1538       C  0.91553115  0.06030141  0.34106844    -0.21800
C1539       C  0.58528216  0.06123946  0.31306024    -0.22900
C1540       C  0.56085973  0.08565165  0.31299653    -0.22900
C1541       C  0.93803051  0.41387897  0.31649056    -0.22900
C1542       C  0.91358207  0.43828132  0.31665944    -0.22800
C1543       C  0.58570582  0.50052722  0.32615832    -0.18200
C1544       C  0.99942412  0.41389678  0.32689069    -0.18200
C1545       C  0.91353086  0.49968634  0.32704838    -0.18200
C1546       C  0.00004468  0.08613743  0.32567927    -0.18200
H1547       H  0.60950646  0.43717329  0.34997969     0.14700
H1548       H  0.56320423  0.39080773  0.35107709     0.14700
H1549       H  0.93604175  0.11057957  0.34703193     0.14700
H1550       H  0.88978881  0.06413794  0.34869944     0.14700
H1551       H  0.61190141  0.06535832  0.31014207     0.13000
H1552       H  0.56497150  0.11226293  0.30999004     0.13000
H1553       H  0.93382952  0.38715613  0.31445313     0.13000
H1554       H  0.88685923  0.43404825  0.31472169     0.13000
H1555       H  0.51964558  0.47968011  0.31099241     0.26300
H1556       H  0.97959932  0.01967535  0.31187550     0.26200
N1557       N  0.96229494  0.32298123  0.46247483    -0.36500
N1558       N  0.53548116  0.32460961  0.46276556    -0.57100
N1559       N  0.53586405  0.32286943  0.03597373    -0.36500
N1560       N  0.96273058  0.32348717  0.03563508    -0.57100
C1561       C  0.96837043  0.33122439  0.43017383     0.27100
C1562       C  0.92985975  0.33087148  0.46883762     0.27100
C1563       C  0.56829013  0.33070167  0.03001647     0.27100
C1564       C  0.52970850  0.33000975  0.06861575     0.27100
C1565       C  0.53032099  0.32179462  0.42936764     0.35700
C1566       C  0.56890119  0.32199891  0.46789070     0.35700
C1567       C  0.92946364  0.31990316  0.03037052     0.35700
C1568       C  0.96799483  0.31976722  0.06888586     0.35700
C1569       C  0.93915288  0.34345183  0.41558798    -0.21800
C1570       C  0.91495406  0.34309419  0.43988115    -0.21800
C1571       C  0.58318612  0.34179753  0.05953454    -0.21800
C1572       C  0.55895337  0.34118903  0.08379878    -0.21800
C1573       C  0.56067563  0.31730300  0.41312326    -0.22900
C1574       C  0.58512200  0.31746361  0.43753059    -0.22900
C1575       C  0.91346634  0.31367334  0.06045426    -0.22900
C1576       C  0.93788730  0.31360847  0.08487106    -0.22800
C1577       C  0.99927240  0.32761772  0.41314001    -0.18200
C1578       C  0.91299570  0.32685196  0.49975055    -0.18200
C1579       C  0.99868586  0.32637091  0.08538171    -0.18200
C1580       C  0.58516135  0.32776353  0.49894726    -0.18200
H1581       H  0.93547433  0.35172473  0.39002573     0.14700
H1582       H  0.88917502  0.35061029  0.43638004     0.14700
H1583       H  0.60892603  0.34944809  0.06336515     0.14700
H1584       H  0.56267666  0.34780789  0.10980281     0.14700
H1585       H  0.56488167  0.31532556  0.38639888     0.13000
H1586       H  0.61184725  0.31557957  0.43329888     0.13000
H1587       H  0.88685014  0.31071888  0.06456298     0.13000
H1588       H  0.93377852  0.31056464  0.11147651     0.13000
H1589       H  0.97906302  0.31173125  0.47892756     0.26300
H1590       H  0.51913037  0.31251331  0.01893543     0.26200
O1591       O  0.71510993  0.21591870  0.52607974    -0.74300
O1592       O  0.78290615  0.28363420  0.52831329    -0.74400
O1593       O  0.71494479  0.28386987  0.52719731    -0.74400
O1594       O  0.78302882  0.21569159  0.52717976    -0.74500
O1595       O  0.78365460  0.21632329  0.97119481    -0.74400
O1596       O  0.71548003  0.28441010  0.97121103    -0.74400
O1597       O  0.78343574  0.28424707  0.97232444    -0.74400
O1598       O  0.71571309  0.21645007  0.97008999    -0.74400
Ni1599     Ni  0.74897142  0.24975707  0.52919994     1.25400
Ni1600     Ni  0.74959144  0.25038405  0.96919688     1.25400
C1601       C  0.70437610  0.20511439  0.49774316     0.87800
C1602       C  0.79424208  0.29497837  0.00066345     0.87800
C1603       C  0.70409238  0.29525843  0.49920510     0.87800
C1604       C  0.79446197  0.20489474  0.99918577     0.88000
O1605       O  0.78321375  0.47193041  0.78364465    -0.74300
O1606       O  0.71497854  0.47186420  0.71561550    -0.74400
O1607       O  0.78292158  0.47077338  0.71568623    -0.74400
O1608       O  0.71525578  0.47303168  0.78354282    -0.74500
O1609       O  0.71584139  0.02900150  0.78291141    -0.74400
O1610       O  0.78363378  0.02677073  0.71519610    -0.74400
O1611       O  0.71571363  0.02785342  0.71496923    -0.74400
O1612       O  0.78380110  0.02791062  0.78314688    -0.74400
Ni1613     Ni  0.74907146  0.46989134  0.74964930     1.25400
Ni1614     Ni  0.74977348  0.02989058  0.74903351     1.25400
C1615       C  0.79461100  0.49993297  0.79447024     0.87800
C1616       C  0.70416382  0.49984912  0.70418278     0.87800
C1617       C  0.79425037  0.49842414  0.70432760     0.87800
C1618       C  0.70446388  0.50137629  0.79427317     0.88000
O1619       O  0.97136022  0.28348717  0.78345592    -0.74300
O1620       O  0.97133906  0.21538755  0.71529085    -0.74400
O1621       O  0.97255959  0.21556895  0.78323723    -0.74400
O1622       O  0.97012748  0.28335078  0.71551414    -0.74500
O1623       O  0.52611437  0.28395338  0.71482277    -0.74400
O1624       O  0.52854616  0.21625007  0.78263032    -0.74400
O1625       O  0.52732495  0.21601229  0.71466770    -0.74400
O1626       O  0.52734293  0.28419700  0.78274094    -0.74400
Ni1627     Ni  0.96933880  0.24941853  0.74939807     1.25400
Ni1628     Ni  0.52933985  0.25012662  0.74868567     1.25400
C1629       C  0.99935520  0.29496214  0.79421303     0.87800
C1630       C  0.99933065  0.20458198  0.70386435     0.87800
C1631       C  0.00092191  0.20488116  0.79401372     0.87800
C1632       C  0.99774976  0.29472315  0.70413271     0.88000
C1633       C  0.66345728  0.12239237  0.99736276     0.80300
N1634       N  0.68749251  0.14637507  0.99724742    -0.78000
C1635       C  0.67857556  0.17932267  0.99702324     0.82800
N1636       N  0.64565502  0.18830846  0.99717298    -0.77900
C1637       C  0.62162379  0.16433573  0.99728169     0.82900
N1638       N  0.63062827  0.13148317  0.99742239    -0.79700
C1639       C  0.62111499  0.33655336  0.99841731     0.80300
N1640       N  0.62996657  0.36932449  0.99921185    -0.78000
C1641       C  0.66272869  0.37820692  0.99999723     0.82800
N1642       N  0.68689034  0.35410503  0.99992384    -0.77900
C1643       C  0.67813385  0.32120045  0.99920606     0.82900
N1644       N  0.64523869  0.31241482  0.99848728    -0.79700
C1645       C  0.62173276  0.50182545  0.83519472     0.80300
N1646       N  0.64572246  0.50190422  0.81116934    -0.78000
C1647       C  0.67867193  0.50212383  0.82008949     0.82800
N1648       N  0.68765459  0.50201325  0.85301890    -0.77900
C1649       C  0.66368202  0.50194427  0.87705422     0.82900
N1650       N  0.63082465  0.50180139  0.86803302    -0.79700
N1651       N  0.67628663  0.46349949  0.96247346    -0.36500
N1652       N  0.67454793  0.46383401  0.53567288    -0.57100
N1653       N  0.67626433  0.03708207  0.53592346    -0.36500
N1654       N  0.67572998  0.03661816  0.96276188    -0.57100
C1655       C  0.66849086  0.43106146  0.96842110     0.27100
C1656       C  0.66913870  0.46966165  0.92983333     0.27100
C1657       C  0.66803677  0.03102646  0.56823060     0.27100
C1658       C  0.66843138  0.06953007  0.52956497     0.27100
C1659       C  0.67722489  0.43042241  0.53053677     0.35700
C1660       C  0.67734231  0.46898428  0.56907090     0.35700
C1661       C  0.67938466  0.03133987  0.92950413     0.35700
C1662       C  0.67931725  0.06988949  0.96800807     0.35700
C1663       C  0.65740021  0.41616747  0.93890193    -0.21800
C1664       C  0.65798442  0.44040994  0.91464668    -0.21800
C1665       C  0.65586973  0.06026750  0.58282520    -0.21800
C1666       C  0.65625006  0.08446513  0.55852923    -0.21800
C1667       C  0.68178405  0.41419594  0.56089076    -0.22900
C1668       C  0.68188443  0.43863262  0.58530761    -0.22900
C1669       C  0.68549295  0.06144515  0.91349379    -0.22900
C1670       C  0.68547552  0.08587691  0.93790276    -0.22800
C1671       C  0.67147863  0.41417065  0.99947625    -0.18200
C1672       C  0.67278244  0.50068504  0.91306242    -0.18200
C1673       C  0.67245873  0.08637277  0.99864366    -0.18200
C1674       C  0.67146776  0.50001723  0.58530033    -0.18200
H1675       H  0.64979056  0.39041649  0.93505980     0.14700
H1676       H  0.65140316  0.43667945  0.88863731     0.14700
H1677       H  0.64762223  0.06396046  0.60839447     0.14700
H1678       H  0.64875600  0.11025637  0.56202828     0.14700
H1679       H  0.68371709  0.38747174  0.56511237     0.13000
H1680       H  0.68386038  0.43442071  0.61203111     0.13000
H1681       H  0.68849257  0.06554148  0.88688102     0.13000
H1682       H  0.68842303  0.11249270  0.93377908     0.13000
H1683       H  0.68664419  0.48023018  0.97951582     0.26300
H1684       H  0.68746628  0.02029428  0.51946410     0.26200
C1685       C  0.66279056  0.49944359  0.62125671     0.80300
N1686       N  0.68696258  0.49947463  0.64535102    -0.78000
C1687       C  0.67820399  0.49983634  0.67825561     0.82800
N1688       N  0.64530557  0.50023760  0.68704355    -0.77900
C1689       C  0.62119191  0.50034904  0.66288853     0.82900
N1690       N  0.63004544  0.49991773  0.63013550    -0.79700
C1691       C  0.83582416  0.12195724  0.99881244     0.80300
N1692       N  0.86856964  0.13083705  0.99926054    -0.78000
C1693       C  0.87743131  0.16358875  0.99967129     0.82800
N1694       N  0.85332184  0.18774634  0.99956535    -0.78500
C1695       C  0.82041858  0.17895979  0.99918744     0.82900
N1696       N  0.81165405  0.14605179  0.99884379    -0.79700
C1697       C  0.00130293  0.12212802  0.83479344     0.80300
N1698       N  0.00148766  0.14616135  0.81082901    -0.78000
C1699       C  0.00168755  0.17908406  0.81981664     0.82800
N1700       N  0.00143109  0.18800230  0.85276875    -0.77900
C1701       C  0.00123598  0.16396730  0.87675100     0.82900
N1702       N  0.00113282  0.13113506  0.86765013    -0.79700
N1703       N  0.96272153  0.17685913  0.96210218    -0.36500
N1704       N  0.53588740  0.17625547  0.96252365    -0.57100
N1705       N  0.53622647  0.17689650  0.53567480    -0.36500
N1706       N  0.96302373  0.17519352  0.53530189    -0.57100
C1707       C  0.96904925  0.16902428  0.92964557     0.27100
C1708       C  0.93039956  0.16869325  0.96817639     0.27100
C1709       C  0.56889361  0.16988113  0.52955329     0.27100
C1710       C  0.53029664  0.16918812  0.56813117     0.27100
C1711       C  0.53063229  0.17979995  0.92925034     0.35700
C1712       C  0.56914930  0.17990653  0.96778521     0.35700
C1713       C  0.92963056  0.17803645  0.53015085     0.35700
C1714       C  0.96815372  0.17779117  0.56872021     0.35700
C1715       C  0.94004531  0.15691829  0.91472180    -0.21800
C1716       C  0.91576145  0.15657526  0.93893460    -0.21800
C1717       C  0.58412672  0.15892005  0.55885571    -0.21800
C1718       C  0.55985999  0.15830778  0.58308700    -0.21800
C1719       C  0.56073710  0.18591838  0.91324595    -0.22900
C1720       C  0.58515277  0.18596298  0.93766708    -0.22900
C1721       C  0.91339318  0.18252963  0.56051018    -0.22900
C1722       C  0.93780185  0.18234510  0.58495040    -0.22800
C1723       C  0.99997642  0.17297707  0.91278223    -0.18200
C1724       C  0.91339249  0.17226775  0.99909901    -0.18200
C1725       C  0.99921007  0.17204652  0.58497498    -0.18200
C1726       C  0.58563652  0.17342482  0.99850915    -0.18200
H1727       H  0.93651200  0.14945545  0.88892614     0.14700
H1728       H  0.89017091  0.14838177  0.93525300     0.14700
H1729       H  0.61016429  0.15245237  0.56261568     0.14700
H1730       H  0.56371621  0.15080787  0.60886634     0.14700
H1731       H  0.56485437  0.18883849  0.88662790     0.13000
H1732       H  0.61176494  0.18895846  0.93355814     0.13000
H1733       H  0.88667221  0.18454094  0.56472101     0.13000
H1734       H  0.93357750  0.18424541  0.61167623     0.13000
H1735       H  0.97921526  0.18802152  0.97889130     0.26300
H1736       H  0.51914770  0.18707832  0.51888704     0.26200
C1737       C  0.99866298  0.16326194  0.62091686     0.80300
N1738       N  0.99871668  0.18741032  0.64503016    -0.78000
C1739       C  0.99933222  0.17863790  0.67792270     0.82800
N1740       N  0.99997452  0.14574255  0.68669159    -0.77900
C1741       C  0.00007489  0.12163043  0.66254050     0.82900
N1742       N  0.99937932  0.13049244  0.62977316    -0.79700
C1743       C  0.99741242  0.33548855  0.62137296     0.80300
N1744       N  0.99722899  0.31152433  0.64540781    -0.78000
C1745       C  0.99697692  0.32051520  0.67832879     0.82800
N1746       N  0.99717483  0.35346679  0.68724503    -0.77900
C1747       C  0.99736320  0.37744802  0.66321277     0.82900
N1748       N  0.99752401  0.36834775  0.63038003    -0.79700
C1749       C  0.83513676  0.49808692  0.62159524     0.80300
N1750       N  0.86797145  0.49813419  0.63067742    -0.78000
C1751       C  0.87699427  0.49796404  0.66352650     0.82800
N1752       N  0.85297118  0.49783674  0.68750407    -0.77900
C1753       C  0.82004374  0.49770089  0.67852764     0.82900
N1754       N  0.81111265  0.49795673  0.64558310    -0.79700
N1755       N  0.53590107  0.46278086  0.67615067    -0.36500
N1756       N  0.96272841  0.46321231  0.67548835    -0.57100
N1757       N  0.96252861  0.03636726  0.67615976    -0.36500
N1758       N  0.53572138  0.03601764  0.67441392    -0.57100
C1759       C  0.52955962  0.43033206  0.66829833     0.27100
C1760       C  0.56822167  0.46885508  0.66799020     0.27100
C1761       C  0.92986709  0.03022447  0.66913761     0.27100
C1762       C  0.96845628  0.06881951  0.66842976     0.27100
C1763       C  0.96798113  0.42994386  0.67907160     0.35700
C1764       C  0.92947031  0.46847735  0.67915179     0.35700
C1765       C  0.56911209  0.03087100  0.67728800     0.35700
C1766       C  0.53058626  0.06943104  0.67707159     0.35700
C1767       C  0.55855904  0.41540646  0.65619757    -0.21800
C1768       C  0.58285069  0.43961535  0.65586678    -0.21800
C1769       C  0.91463262  0.05951494  0.65814851    -0.21800
C1770       C  0.93889501  0.08375532  0.65752076    -0.21800
C1771       C  0.93787941  0.41394477  0.68522925    -0.22900
C1772       C  0.91346643  0.43836663  0.68525902    -0.22900
C1773       C  0.58534271  0.06122769  0.68185974    -0.22900
C1774       C  0.56093121  0.08566303  0.68169449    -0.22800
C1775       C  0.99862696  0.41347400  0.67223449    -0.18200
C1776       C  0.58523740  0.49977346  0.67157746    -0.18200
C1777       C  0.99953325  0.08568266  0.67131509    -0.18200
C1778       C  0.91299137  0.49918992  0.67260881    -0.18200
H1779       H  0.56208510  0.38961128  0.64873413     0.14700
H1780       H  0.60844030  0.43593177  0.64768071     0.14700
H1781       H  0.88859321  0.06326586  0.65169038     0.14700
H1782       H  0.93503457  0.10952951  0.65000550     0.14700
H1783       H  0.93376194  0.38732883  0.68818216     0.13000
H1784       H  0.88685546  0.43426056  0.68826933     0.13000
H1785       H  0.61206145  0.06544067  0.68391574     0.13000
H1786       H  0.56514858  0.11238780  0.68365638     0.13000
H1787       H  0.51941067  0.47956727  0.68732581     0.26300
H1788       H  0.97960679  0.01959384  0.68638108     0.26200
C1789       C  0.87697547  0.33588893  0.00103863     0.80300
N1790       N  0.86788988  0.36872743  0.00097879    -0.78000
C1791       C  0.83503399  0.37774281  0.00112773     0.82800
N1792       N  0.81106097  0.35370794  0.00124434    -0.77900
C1793       C  0.82003929  0.32078262  0.00139236     0.82900
N1794       N  0.85298451  0.31186119  0.00116374    -0.79700
C1795       C  0.99982570  0.33629944  0.87717397     0.80300
N1796       N  0.99976174  0.31213656  0.85306462    -0.78000
C1797       C  0.99936219  0.32091207  0.82016114     0.82800
N1798       N  0.99895348  0.35381931  0.81139171    -0.77900
C1799       C  0.99886697  0.37792519  0.83555966     0.82900
N1800       N  0.99933982  0.36905016  0.86830733    -0.79700
C1801       C  0.87757401  0.49914683  0.83580882     0.80300
N1802       N  0.85346129  0.49923086  0.81165464    -0.78000
C1803       C  0.82056293  0.49994903  0.82042071     0.82800
N1804       N  0.81179284  0.50065369  0.85331884    -0.77900
C1805       C  0.83594416  0.50071930  0.87743506     0.82900
N1806       N  0.86870864  0.49993300  0.86857261    -0.79700
N1807       N  0.82238674  0.46315734  0.96270588    -0.36500
N1808       N  0.82293366  0.46348066  0.53583922    -0.57100
N1809       N  0.82249218  0.03667391  0.53635533    -0.36500
N1810       N  0.82409528  0.03637918  0.96316188    -0.57100
C1811       C  0.82956301  0.43052384  0.96886269     0.27100
C1812       C  0.83018333  0.46912102  0.93027337     0.27100
C1813       C  0.83035603  0.03031931  0.56879729     0.27100
C1814       C  0.83075869  0.06896976  0.53027833     0.27100
C1815       C  0.81925886  0.43022376  0.53056321     0.35700
C1816       C  0.81924666  0.46874681  0.56909252     0.35700
C1817       C  0.82146949  0.03126365  0.92974225     0.35700
C1818       C  0.82131190  0.06977671  0.96832675     0.35700
C1819       C  0.84073767  0.41535515  0.93961322    -0.21800
C1820       C  0.84130189  0.43961627  0.91537670    -0.21800
C1821       C  0.84260044  0.05927428  0.58370511    -0.21800
C1822       C  0.84298779  0.08356055  0.55949801    -0.21800
C1823       C  0.81303031  0.41423249  0.56065139    -0.22900
C1824       C  0.81299824  0.43865498  0.58507164    -0.22900
C1825       C  0.81695586  0.06162938  0.91352650    -0.22900
C1826       C  0.81682690  0.08603138  0.93797598    -0.22800
C1827       C  0.82592572  0.41374172  0.99987841    -0.18200
C1828       C  0.82718289  0.50018077  0.91339335    -0.18200
C1829       C  0.82715337  0.08599563  0.99937467    -0.18200
C1830       C  0.82611995  0.49937921  0.58557869    -0.18200
H1831       H  0.84734956  0.38935433  0.93588055     0.14700
H1832       H  0.84892239  0.43578818  0.88962967     0.14700
H1833       H  0.85012492  0.06277613  0.60948566     0.14700
H1834       H  0.85127908  0.10912119  0.56317142     0.14700
H1835       H  0.80998775  0.38762369  0.56474846     0.13000
H1836       H  0.80996211  0.43454821  0.61167805     0.13000
H1837       H  0.81506671  0.06586790  0.88680261     0.13000
H1838       H  0.81487493  0.11275862  0.93377381     0.13000
H1839       H  0.81201234  0.48018193  0.97943846     0.26300
H1840       H  0.81123649  0.02022126  0.51958917     0.26200
N1841       N  0.53640694  0.46323794  0.82227505    -0.36500
N1842       N  0.53600808  0.03639635  0.82278507    -0.57100
N1843       N  0.96285828  0.03672382  0.82219977    -0.36500
N1844       N  0.96321449  0.46351675  0.82392089    -0.57100
C1845       C  0.56883720  0.46961282  0.83018833     0.27100
C1846       C  0.53032303  0.43094015  0.83052857     0.27100
C1847       C  0.96901649  0.06937229  0.82930475     0.27100
C1848       C  0.93042973  0.03077119  0.83001897     0.27100
C1849       C  0.56927966  0.03114256  0.81923303     0.35700
C1850       C  0.53074513  0.06965196  0.81910064     0.35700
C1851       C  0.96837950  0.43012386  0.82105358     0.35700
C1852       C  0.92979687  0.46863822  0.82126997     0.35700
C1853       C  0.58373305  0.44066487  0.84243957    -0.21800
C1854       C  0.55953219  0.41636601  0.84278923    -0.21800
C1855       C  0.93976619  0.08456728  0.84044487    -0.21800
C1856       C  0.91553114  0.06030148  0.84106835    -0.21800
C1857       C  0.58528220  0.06123953  0.81306040    -0.22900
C1858       C  0.56085977  0.08565171  0.81299667    -0.22900
C1859       C  0.93803055  0.41387884  0.81649063    -0.22900
C1860       C  0.91358209  0.43828116  0.81665965    -0.22800
C1861       C  0.58570590  0.50052720  0.82615833    -0.18200
C1862       C  0.99942419  0.41389674  0.82689067    -0.18200
C1863       C  0.91353088  0.49968626  0.82704833    -0.18200
C1864       C  0.00004467  0.08613746  0.82567928    -0.18200
H1865       H  0.60950662  0.43717315  0.84997939     0.14700
H1866       H  0.56320436  0.39080764  0.85107684     0.14700
H1867       H  0.93604184  0.11057962  0.84703192     0.14700
H1868       H  0.88978881  0.06413801  0.84869940     0.14700
H1869       H  0.61190146  0.06535841  0.81014234     0.13000
H1870       H  0.56497155  0.11226297  0.80999016     0.13000
H1871       H  0.93382958  0.38715600  0.81445323     0.13000
H1872       H  0.88685925  0.43404803  0.81472205     0.13000
H1873       H  0.51964564  0.47968013  0.81099240     0.26300
H1874       H  0.97959933  0.01967536  0.81187536     0.26200
N1875       N  0.96229492  0.32298128  0.96247485    -0.36500
N1876       N  0.53548114  0.32460972  0.96276555    -0.57100
N1877       N  0.53586399  0.32286951  0.53597371    -0.36500
N1878       N  0.96273057  0.32348725  0.53563508    -0.57100
C1879       C  0.96837041  0.33122445  0.93017385     0.27100
C1880       C  0.92985975  0.33087161  0.96883767     0.27100
C1881       C  0.56829007  0.33070174  0.53001646     0.27100
C1882       C  0.52970843  0.33000982  0.56861573     0.27100
C1883       C  0.53032097  0.32179461  0.92936763     0.35700
C1884       C  0.56890118  0.32199895  0.96789068     0.35700
C1885       C  0.92946365  0.31990316  0.53037051     0.35700
C1886       C  0.96799480  0.31976729  0.56888585     0.35700
C1887       C  0.93915289  0.34345201  0.91558805    -0.21800
C1888       C  0.91495411  0.34309444  0.93988124    -0.21800
C1889       C  0.58318603  0.34179763  0.55953452    -0.21800
C1890       C  0.55895329  0.34118912  0.58379875    -0.21800
C1891       C  0.56067560  0.31730288  0.91312326    -0.22900
C1892       C  0.58512198  0.31746353  0.93753058    -0.22900
C1893       C  0.91346631  0.31367328  0.56045421    -0.22900
C1894       C  0.93788725  0.31360852  0.58487104    -0.22800
C1895       C  0.99927235  0.32761770  0.91314000    -0.18200
C1896       C  0.91299568  0.32685203  0.99975058    -0.18200
C1897       C  0.99868585  0.32637092  0.58538171    -0.18200
C1898       C  0.58516136  0.32776358  0.99894723    -0.18200
H1899       H  0.93547432  0.35172494  0.89002583     0.14700
H1900       H  0.88917512  0.35061070  0.93638013     0.14700
H1901       H  0.60892594  0.34944817  0.56336513     0.14700
H1902       H  0.56267658  0.34780799  0.60980278     0.14700
H1903       H  0.56488162  0.31532534  0.88639888     0.13000
H1904       H  0.61184723  0.31557944  0.93329888     0.13000
H1905       H  0.88685010  0.31071867  0.56456288     0.13000
H1906       H  0.93377847  0.31056470  0.61147648     0.13000
H1907       H  0.97906298  0.31173122  0.97892754     0.26300
H1908       H  0.51913033  0.31251334  0.51893542     0.26200
O1909       O  0.71516731  0.71584927  0.02611108    -0.74300
O1910       O  0.78292996  0.78360926  0.02828756    -0.74400
O1911       O  0.71496851  0.78380641  0.02723898    -0.74400
O1912       O  0.78309034  0.71566695  0.02714655    -0.74500
O1913       O  0.78365300  0.71629052  0.47116064    -0.74400
O1914       O  0.71545898  0.78436158  0.47125265    -0.74400
O1915       O  0.78341801  0.78422410  0.47229917    -0.74400
O1916       O  0.71570429  0.71640162  0.47012130    -0.74400
Ni1917     Ni  0.74901502  0.74970990  0.02920270     1.25400
Ni1918     Ni  0.74957781  0.75034493  0.46919997     1.25400
C1919       C  0.70439482  0.70505789  0.99778335     0.87800
C1920       C  0.79424042  0.79496358  0.50063072     0.87800
C1921       C  0.70409638  0.79520651  0.99925871     0.87800
C1922       C  0.79449445  0.70486899  0.49914195     0.88000
O1923       O  0.78326863  0.97192215  0.28370833    -0.74300
O1924       O  0.71509022  0.97186680  0.21560929    -0.74400
O1925       O  0.78304270  0.97077998  0.21574912    -0.74400
O1926       O  0.71531532  0.97301166  0.28353976    -0.74500
O1927       O  0.71579396  0.52902077  0.28290210    -0.74400
O1928       O  0.78351840  0.52676414  0.21512039    -0.74400
O1929       O  0.71560135  0.52785155  0.21496024    -0.74400
O1930       O  0.78375608  0.52791847  0.28307019    -0.74400
Ni1931     Ni  0.74915871  0.96988634  0.24967768     1.25400
Ni1932     Ni  0.74969318  0.52989562  0.24899015     1.25400
C1933       C  0.79464990  0.99992513  0.29455050     0.87800
C1934       C  0.70428044  0.99985516  0.20417473     0.87800
C1935       C  0.79437622  0.99843425  0.20440371     0.87800
C1936       C  0.70450794  0.00135109  0.29426534     0.88000
O1937       O  0.97137092  0.78349288  0.28345165    -0.74300
O1938       O  0.97134922  0.71536927  0.21530223    -0.74400
O1939       O  0.97253642  0.71557218  0.28325084    -0.74400
O1940       O  0.97018594  0.78333896  0.21550336    -0.74500
O1941       O  0.52617300  0.78390932  0.21484679    -0.74400
O1942       O  0.52852403  0.71623025  0.28267627    -0.74400
O1943       O  0.52733522  0.71595538  0.21471203    -0.74400
O1944       O  0.52735377  0.78417362  0.28277021    -0.74400
Ni1945     Ni  0.96935300  0.74941453  0.24939885     1.25400
Ni1946     Ni  0.52935392  0.75008910  0.24872168     1.25400
C1947       C  0.99936470  0.79495334  0.29422915     0.87800
C1948       C  0.99933884  0.70453979  0.20389286     0.87800
C1949       C  0.00088930  0.70487643  0.29404601     0.87800
C1950       C  0.99782222  0.79470003  0.20414129     0.88000
C1951       C  0.66345200  0.62234688  0.49747431     0.80300
N1952       N  0.68749067  0.64632465  0.49735816    -0.78000
C1953       C  0.67858146  0.67927265  0.49708200     0.82800
N1954       N  0.64565919  0.68826450  0.49718111    -0.77900
C1955       C  0.62162046  0.66429564  0.49729478     0.82900
N1956       N  0.63062309  0.63144189  0.49748581    -0.79700
C1957       C  0.62115843  0.83659276  0.49845864     0.80300
N1958       N  0.63004713  0.86935481  0.49926241    -0.78000
C1959       C  0.66281951  0.87820400  0.50006867     0.82800
N1960       N  0.68695451  0.85407329  0.50000463    -0.77900
C1961       C  0.67816186  0.82117651  0.49928372     0.82900
N1962       N  0.64525653  0.81242760  0.49854320    -0.79700
C1963       C  0.62177156  0.00178272  0.33517763     0.80300
N1964       N  0.64576039  0.00188429  0.31115035    -0.78000
C1965       C  0.67871021  0.00208221  0.32007197     0.82800
N1966       N  0.68769216  0.00193024  0.35299883    -0.77900
C1967       C  0.66372033  0.00183561  0.37703126     0.82900
N1968       N  0.63086398  0.00171642  0.36801412    -0.79700
N1969       N  0.67640620  0.96347048  0.46246947    -0.36500
N1970       N  0.67467614  0.96387712  0.03566224    -0.57100
N1971       N  0.67617785  0.53701150  0.03600075    -0.36500
N1972       N  0.67569021  0.53661568  0.46282889    -0.57100
C1973       C  0.66864969  0.93102368  0.46843856     0.27100
C1974       C  0.66925297  0.96959786  0.42982282     0.27100
C1975       C  0.66788754  0.53092682  0.06828496     0.27100
C1976       C  0.66834853  0.56945918  0.02965259     0.27100
C1977       C  0.67732319  0.93045425  0.03056531     0.35700
C1978       C  0.67745347  0.96906369  0.06905738     0.35700
C1979       C  0.67941793  0.53136388  0.42957507     0.35700
C1980       C  0.67937698  0.56986555  0.46812731     0.35700
C1981       C  0.65759163  0.91609266  0.43892569    -0.21800
C1982       C  0.65814057  0.94031950  0.41465384    -0.21800
C1983       C  0.65568138  0.56014982  0.08287990    -0.21800
C1984       C  0.65611128  0.58436643  0.05860554    -0.21800
C1985       C  0.68184186  0.91425879  0.06094022    -0.22900
C1986       C  0.68195059  0.93872281  0.08532842    -0.22900
C1987       C  0.68567645  0.56146378  0.41361804    -0.22900
C1988       C  0.68567820  0.58586685  0.43805938    -0.22800
C1989       C  0.67160593  0.91416543  0.49951641    -0.18200
C1990       C  0.67282385  0.00062084  0.41303410    -0.18200
C1991       C  0.67245087  0.58632851  0.49875730    -0.18200
C1992       C  0.67161865  0.00012189  0.08526176    -0.18200
H1993       H  0.65000366  0.89033219  0.43510345     0.14700
H1994       H  0.65153082  0.93656915  0.38865109     0.14700
H1995       H  0.64739217  0.56382254  0.10843826     0.14700
H1996       H  0.64864271  0.61015759  0.06211966     0.14700
H1997       H  0.68375120  0.88753809  0.06519300     0.13000
H1998       H  0.68390786  0.93453626  0.11205724     0.13000
H1999       H  0.68876501  0.56557753  0.38701901     0.13000
H2000       H  0.68872954  0.61247698  0.43397845     0.13000
H2001       H  0.68671762  0.98023614  0.47949971     0.26300
H2002       H  0.68743302  0.52024586  0.01954788     0.26200
C2003       C  0.66293881  0.99956842  0.12121880     0.80300
N2004       N  0.68710182  0.99954971  0.14532538    -0.78000
C2005       C  0.67832793  0.99985904  0.17822817     0.82800
N2006       N  0.64542128  0.00025647  0.18699695    -0.77900
C2007       C  0.62131891  0.00041626  0.16282701     0.82900
N2008       N  0.63019106  0.00003611  0.13008133    -0.79700
C2009       C  0.83581754  0.62191737  0.49874676     0.80300
N2010       N  0.86856863  0.63078034  0.49925494    -0.78000
C2011       C  0.87744630  0.66352935  0.49969633     0.82800
N2012       N  0.85334825  0.68769766  0.49956226    -0.78500
C2013       C  0.82044171  0.67892664  0.49912700     0.82900
N2014       N  0.81166132  0.64602412  0.49875374    -0.79700
C2015       C  0.00126955  0.62212442  0.33482032     0.80300
N2016       N  0.00143017  0.64615940  0.31085808    -0.78000
C2017       C  0.00164023  0.67908111  0.31984761     0.82800
N2018       N  0.00142466  0.68799925  0.35279980    -0.77900
C2019       C  0.00125663  0.66396408  0.37678165     0.82900
N2020       N  0.00113613  0.63113078  0.36767840    -0.79700
N2021       N  0.96273194  0.67679691  0.46213043    -0.36500
N2022       N  0.53588682  0.67624882  0.46255241    -0.57100
N2023       N  0.53621397  0.67682414  0.03569280    -0.36500
N2024       N  0.96302844  0.67511751  0.03531877    -0.57100
C2025       C  0.96907309  0.66895136  0.42968175     0.27100
C2026       C  0.93042677  0.66857986  0.46821243     0.27100
C2027       C  0.56885974  0.66973469  0.02954851     0.27100
C2028       C  0.53025837  0.66902852  0.06812270     0.27100
C2029       C  0.53062178  0.67986776  0.42928935     0.35700
C2030       C  0.56913892  0.67996479  0.46782750     0.35700
C2031       C  0.92964697  0.67805615  0.03015335     0.35700
C2032       C  0.96816388  0.67783624  0.06872551     0.35700
C2033       C  0.94009036  0.65678293  0.41476875    -0.21800
C2034       C  0.91580903  0.65640988  0.43898286    -0.21800
C2035       C  0.58405229  0.65862470  0.05881359    -0.21800
C2036       C  0.55978229  0.65799362  0.08303980    -0.21800
C2037       C  0.56071058  0.68610586  0.41330281    -0.22900
C2038       C  0.58512814  0.68614478  0.43772779    -0.22900
C2039       C  0.91341996  0.68273310  0.06049112    -0.22900
C2040       C  0.93782812  0.68256770  0.08493654    -0.22800
C2041       C  0.99998608  0.67297504  0.41281272    -0.18200
C2042       C  0.91340913  0.67219882  0.49912143    -0.18200
C2043       C  0.99919534  0.67200179  0.08498796    -0.18200
C2044       C  0.58562842  0.67338803  0.49853017    -0.18200
H2045       H  0.93656332  0.64931793  0.38897534     0.14700
H2046       H  0.89022933  0.64818283  0.43530438     0.14700
H2047       H  0.61007424  0.65211157  0.06256455     0.14700
H2048       H  0.56361895  0.65041101  0.10879703     0.14700
H2049       H  0.56481882  0.68910025  0.38669197     0.13000
H2050       H  0.61173393  0.68920636  0.43362963     0.13000
H2051       H  0.88670486  0.68485790  0.06468661     0.13000
H2052       H  0.93361180  0.68459342  0.11165506     0.13000
H2053       H  0.97920289  0.68802147  0.47890795     0.26300
H2054       H  0.51917201  0.68715269  0.01894566     0.26200
C2055       C  0.99862802  0.66322327  0.12093218     0.80300
N2056       N  0.99870587  0.68736976  0.14504997    -0.78000
C2057       C  0.99933053  0.67859457  0.17794387     0.82800
N2058       N  0.99995148  0.64569683  0.18670699    -0.77900
C2059       C  0.00002340  0.62158871  0.16255092     0.82900
N2060       N  0.99932534  0.63045430  0.12978594    -0.79700
C2061       C  0.99744881  0.83547530  0.12138370     0.80300
N2062       N  0.99726684  0.81151080  0.14541793    -0.78000
C2063       C  0.99707968  0.82050134  0.17833962     0.82800
N2064       N  0.99734173  0.85345620  0.18725475    -0.77900
C2065       C  0.99753395  0.87743823  0.16321873     0.82900
N2066       N  0.99762733  0.86833345  0.13038889    -0.79700
C2067       C  0.83529169  0.99812914  0.12168091     0.80300
N2068       N  0.86812133  0.99814368  0.13077487    -0.78000
C2069       C  0.87713207  0.99794520  0.16362622     0.82800
N2070       N  0.85310317  0.99782262  0.18759764    -0.77900
C2071       C  0.82017869  0.99771772  0.17861077     0.82900
N2072       N  0.81125897  0.99800095  0.14566207    -0.79700
N2073       N  0.53603965  0.96281114  0.17606938    -0.36500
N2074       N  0.96287946  0.96320718  0.17553492    -0.57100
N2075       N  0.96241576  0.53634777  0.17610932    -0.36500
N2076       N  0.53561973  0.53597144  0.17449156    -0.57100
C2077       C  0.52970831  0.93035608  0.16822898     0.27100
C2078       C  0.56834743  0.96890740  0.16787733     0.27100
C2079       C  0.92976846  0.53021243  0.16900112     0.27100
C2080       C  0.96838390  0.56878330  0.16834425     0.27100
C2081       C  0.96814158  0.92993311  0.17907334     0.35700
C2082       C  0.92961904  0.96845948  0.17920067     0.35700
C2083       C  0.56900686  0.53081626  0.17738295     0.35700
C2084       C  0.53049495  0.56938597  0.17713062     0.35700
C2085       C  0.55870115  0.91545227  0.15608560    -0.21800
C2086       C  0.58297799  0.93967884  0.15572695    -0.21800
C2087       C  0.91458604  0.55948756  0.15790815    -0.21800
C2088       C  0.93886380  0.58371305  0.15731481    -0.21800
C2089       C  0.93804228  0.91391896  0.18520522    -0.22900
C2090       C  0.91362357  0.93833439  0.18526254    -0.22900
C2091       C  0.58524715  0.56116817  0.18195047    -0.22900
C2092       C  0.56084367  0.58561043  0.18176452    -0.22800
C2093       C  0.99879347  0.91347394  0.17222268    -0.18200
C2094       C  0.58535461  0.99983101  0.17148381    -0.18200
C2095       C  0.99945649  0.58564209  0.17131591    -0.18200
C2096       C  0.91312396  0.99917847  0.17271230    -0.18200
H2097       H  0.56223470  0.88965966  0.14861729     0.14700
H2098       H  0.60856100  0.93601239  0.14751295     0.14700
H2099       H  0.88857099  0.56323950  0.15135738     0.14700
H2100       H  0.93503811  0.60947520  0.14974348     0.14700
H2101       H  0.93392861  0.88729783  0.18811904     0.13000
H2102       H  0.88701335  0.93421620  0.18826322     0.13000
H2103       H  0.61196708  0.56537375  0.18400889     0.13000
H2104       H  0.56507152  0.61233493  0.18370464     0.13000
H2105       H  0.51955934  0.97958724  0.18727413     0.26300
H2106       H  0.97945432  0.51958946  0.18642431     0.26200
C2107       C  0.87697370  0.83590129  0.50106219     0.80300
N2108       N  0.86787959  0.86873728  0.50103858    -0.78000
C2109       C  0.83502259  0.87774836  0.50117653     0.82800
N2110       N  0.81105101  0.85370808  0.50124156    -0.77900
C2111       C  0.82003486  0.82078113  0.50135182     0.82900
N2112       N  0.85298487  0.81186793  0.50113978    -0.79700
C2113       C  0.99983890  0.83631898  0.37719167     0.80300
N2114       N  0.99976831  0.81214559  0.35308865    -0.78000
C2115       C  0.99936837  0.82090984  0.32017904     0.82800
N2116       N  0.99896397  0.85381491  0.31140145    -0.77900
C2117       C  0.99888889  0.87792714  0.33556310     0.82900
N2118       N  0.99936393  0.86906444  0.36831231    -0.79700
C2119       C  0.87760208  0.99917417  0.33589460     0.80300
N2120       N  0.85348965  0.99923584  0.31174266    -0.78000
C2121       C  0.82059270  0.99994474  0.32050655     0.82800
N2122       N  0.81182006  0.00066068  0.35340286    -0.77900
C2123       C  0.83596970  0.00074554  0.37752020     0.82900
N2124       N  0.86873725  0.99996760  0.36866020    -0.79700
N2125       N  0.82238605  0.96317990  0.46278726    -0.36500
N2126       N  0.82304171  0.96350426  0.03592008    -0.57100
N2127       N  0.82239679  0.53664159  0.03627063    -0.36500
N2128       N  0.82407875  0.53634929  0.46307739    -0.57100
C2129       C  0.82949687  0.93052693  0.46892006     0.27100
C2130       C  0.83013249  0.96913263  0.43033948     0.27100
C2131       C  0.83017823  0.53029534  0.06873207     0.27100
C2132       C  0.83064821  0.56894358  0.03021340     0.27100
C2133       C  0.81935630  0.93024479  0.03065330     0.35700
C2134       C  0.81941165  0.96877330  0.06918110     0.35700
C2135       C  0.82143610  0.53123373  0.42965912     0.35700
C2136       C  0.82129159  0.56974584  0.46824553     0.35700
C2137       C  0.84056518  0.91533600  0.43964073    -0.21800
C2138       C  0.84114220  0.93960340  0.41541061    -0.21800
C2139       C  0.84233829  0.55926754  0.08367606    -0.21800
C2140       C  0.84277173  0.58355157  0.05946852    -0.21800
C2141       C  0.81318874  0.91425662  0.06075505    -0.22900
C2142       C  0.81319632  0.93868118  0.08517287    -0.22900
C2143       C  0.81690702  0.56159917  0.41344664    -0.22900
C2144       C  0.81679224  0.58600132  0.43789752    -0.22800
C2145       C  0.82592161  0.91375313  0.49994851    -0.18200
C2146       C  0.82719796  0.00020773  0.41347615    -0.18200
C2147       C  0.82711991  0.58596220  0.49929786    -0.18200
C2148       C  0.82629065  0.99941141  0.08565779    -0.18200
H2149       H  0.84710814  0.88931893  0.43588823     0.14700
H2150       H  0.84870358  0.93576569  0.38964700     0.14700
H2151       H  0.84976404  0.56278395  0.10948326     0.14700
H2152       H  0.85101500  0.60912439  0.06316634     0.14700
H2153       H  0.81014624  0.88764872  0.06485774     0.13000
H2154       H  0.81020158  0.93457591  0.11178441     0.13000
H2155       H  0.81500294  0.56583797  0.38672381     0.13000
H2156       H  0.81482891  0.61272831  0.43369895     0.13000
H2157       H  0.81210815  0.98022758  0.47955064     0.26300
H2158       H  0.81121100  0.52017364  0.01947115     0.26200
N2159       N  0.53642866  0.96323619  0.32226870    -0.36500
N2160       N  0.53596430  0.53639684  0.32281564    -0.57100
N2161       N  0.96282699  0.53672071  0.32220494    -0.36500
N2162       N  0.96322898  0.96351737  0.32390909    -0.57100
C2163       C  0.56886862  0.96959662  0.33015626     0.27100
C2164       C  0.53034681  0.93093079  0.33049390     0.27100
C2165       C  0.96898052  0.56936333  0.32933845     0.27100
C2166       C  0.93039989  0.53075691  0.33001406     0.27100
C2167       C  0.56922839  0.53114056  0.31920458     0.35700
C2168       C  0.53069043  0.56964524  0.31908256     0.35700
C2169       C  0.96838082  0.93011775  0.32110965     0.35700
C2170       C  0.92980383  0.96863555  0.32135983     0.35700
C2171       C  0.58377088  0.94063357  0.34236831    -0.21800
C2172       C  0.55956630  0.91633929  0.34271102    -0.21800
C2173       C  0.93972926  0.58454507  0.34049125    -0.21800
C2174       C  0.91549682  0.56027449  0.34109391    -0.21800
C2175       C  0.58521412  0.56122684  0.31294316    -0.22900
C2176       C  0.56078875  0.58563719  0.31288717    -0.22900
C2177       C  0.93801465  0.91386543  0.31668919    -0.22900
C2178       C  0.91357072  0.93826920  0.31687934    -0.22800
C2179       C  0.58574335  0.00051151  0.32614837    -0.18200
C2180       C  0.99943888  0.91389459  0.32688826    -0.18200
C2181       C  0.91355579  0.99969645  0.32711703    -0.18200
C2182       C  0.00000202  0.58613416  0.32570109    -0.18200
H2183       H  0.60954868  0.93713199  0.34990086     0.14700
H2184       H  0.56324047  0.89077336  0.35097462     0.14700
H2185       H  0.93599784  0.61055500  0.34707803     0.14700
H2186       H  0.88975043  0.56410325  0.34871550     0.14700
H2187       H  0.61182629  0.56534082  0.30995960     0.13000
H2188       H  0.56488868  0.61224302  0.30982105     0.13000
H2189       H  0.93380097  0.88713804  0.31474507     0.13000
H2190       H  0.88684129  0.93403118  0.31505245     0.13000
H2191       H  0.51965747  0.97969343  0.31102490     0.26300
H2192       H  0.97956590  0.51968410  0.31185522     0.26200
N2193       N  0.96230733  0.82302237  0.46249918    -0.36500
N2194       N  0.53550624  0.82468921  0.46278932    -0.57100
N2195       N  0.53588674  0.82293433  0.03598237    -0.36500
N2196       N  0.96274187  0.82349888  0.03565112    -0.57100
C2197       C  0.96839740  0.83131329  0.43021286     0.27100
C2198       C  0.92988237  0.83095304  0.46887610     0.27100
C2199       C  0.56831991  0.83074961  0.03004131     0.27100
C2200       C  0.52973497  0.83001708  0.06863457     0.27100
C2201       C  0.53034132  0.82184797  0.42939403     0.35700
C2202       C  0.56892872  0.82208589  0.46791303     0.35700
C2203       C  0.92947482  0.81990441  0.03038831     0.35700
C2204       C  0.96801551  0.81976162  0.06889866     0.35700
C2205       C  0.93920236  0.84362647  0.41565326    -0.21800
C2206       C  0.91500224  0.84326845  0.43994618    -0.21800
C2207       C  0.58322446  0.84178093  0.05957877    -0.21800
C2208       C  0.55899025  0.84114458  0.08384010    -0.21800
C2209       C  0.56069581  0.81735005  0.41315015    -0.22900
C2210       C  0.58514641  0.81753463  0.43755463    -0.22900
C2211       C  0.91348551  0.81364798  0.06047046    -0.22900
C2212       C  0.93791233  0.81358049  0.08488437    -0.22800
C2213       C  0.99928957  0.82766180  0.41316623    -0.18200
C2214       C  0.91300290  0.82687862  0.49977487    -0.18200
C2215       C  0.99871020  0.82636402  0.08539356    -0.18200
C2216       C  0.58519207  0.82783919  0.49897161    -0.18200
H2217       H  0.93553913  0.85195976  0.39010900     0.14700
H2218       H  0.88924066  0.85085412  0.43646288     0.14700
H2219       H  0.60897270  0.84939655  0.06342558     0.14700
H2220       H  0.56272232  0.84769793  0.10985965     0.14700
H2221       H  0.56489887  0.81535297  0.38642674     0.13000
H2222       H  0.61187133  0.81564602  0.43332275     0.13000
H2223       H  0.88687086  0.81068129  0.06458076     0.13000
H2224       H  0.93381033  0.81051867  0.11148876     0.13000
H2225       H  0.97905689  0.81170036  0.47892480     0.26300
H2226       H  0.51914235  0.81262298  0.01892772     0.26200
O2227       O  0.71516738  0.71584925  0.52611104    -0.74300
O2228       O  0.78292999  0.78360926  0.52828756    -0.74400
O2229       O  0.71496850  0.78380637  0.52723893    -0.74400
O2230       O  0.78309043  0.71566701  0.52714660    -0.74500
O2231       O  0.78365298  0.71629053  0.97116058    -0.74400
O2232       O  0.71545901  0.78436165  0.97125269    -0.74400
O2233       O  0.78341803  0.78422413  0.97229916    -0.74400
O2234       O  0.71570423  0.71640171  0.97012134    -0.74400
Ni2235     Ni  0.74901506  0.74970990  0.52920269     1.25400
Ni2236     Ni  0.74957780  0.75034499  0.96919998     1.25400
C2237       C  0.70439490  0.70505783  0.49778333     0.87800
C2238       C  0.79424042  0.79496360  0.00063073     0.87800
C2239       C  0.70409634  0.79520645  0.49925866     0.87800
C2240       C  0.79449439  0.70486895  0.99914189     0.88000
O2241       O  0.78326867  0.97192205  0.78370829    -0.74300
O2242       O  0.71509029  0.97186690  0.71560925    -0.74400
O2243       O  0.78304277  0.97077998  0.71574914    -0.74400
O2244       O  0.71531532  0.97301169  0.78353970    -0.74500
O2245       O  0.71579404  0.52902079  0.78290210    -0.74400
O2246       O  0.78351840  0.52676409  0.71512039    -0.74400
O2247       O  0.71560144  0.52785156  0.71496023    -0.74400
O2248       O  0.78375615  0.52791842  0.78307015    -0.74400
Ni2249     Ni  0.74915875  0.96988635  0.74967765     1.25400
Ni2250     Ni  0.74969323  0.52989560  0.74899015     1.25400
C2251       C  0.79464992  0.99992503  0.79455048     0.87800
C2252       C  0.70428050  0.99985526  0.70417470     0.87800
C2253       C  0.79437633  0.99843424  0.70440377     0.87800
C2254       C  0.70450798  0.00135113  0.79426530     0.88000
O2255       O  0.97137084  0.78349291  0.78345164    -0.74300
O2256       O  0.97134920  0.71536924  0.71530219    -0.74400
O2257       O  0.97253640  0.71557217  0.78325086    -0.74400
O2258       O  0.97018583  0.78333887  0.71550331    -0.74500
O2259       O  0.52617304  0.78390925  0.71484675    -0.74400
O2260       O  0.52852394  0.71623028  0.78267632    -0.74400
O2261       O  0.52733527  0.71595533  0.71471205    -0.74400
O2262       O  0.52735377  0.78417369  0.78277017    -0.74400
Ni2263     Ni  0.96935294  0.74941449  0.74939884     1.25400
Ni2264     Ni  0.52935393  0.75008909  0.74872168     1.25400
C2265       C  0.99936463  0.79495339  0.79422911     0.87800
C2266       C  0.99933884  0.70453979  0.70389284     0.87800
C2267       C  0.00088930  0.70487644  0.79404601     0.87800
C2268       C  0.99782210  0.79469994  0.70414123     0.88000
C2269       C  0.66345200  0.62234690  0.99747431     0.80300
N2270       N  0.68749063  0.64632471  0.99735815    -0.78000
C2271       C  0.67858138  0.67927269  0.99708199     0.82800
N2272       N  0.64565910  0.68826449  0.99718115    -0.77900
C2273       C  0.62162041  0.66429560  0.99729488     0.82900
N2274       N  0.63062307  0.63144185  0.99748586    -0.79700
C2275       C  0.62115846  0.83659274  0.99845863     0.80300
N2276       N  0.63004714  0.86935480  0.99926239    -0.78000
C2277       C  0.66281952  0.87820400  0.00006865     0.82800
N2278       N  0.68695453  0.85407332  0.00000466    -0.77900
C2279       C  0.67816190  0.82117655  0.99928376     0.82900
N2280       N  0.64525658  0.81242761  0.99854320    -0.79700
C2281       C  0.62177160  0.00178279  0.83517762     0.80300
N2282       N  0.64576043  0.00188437  0.81115034    -0.78000
C2283       C  0.67871026  0.00208230  0.82007194     0.82800
N2284       N  0.68769221  0.00193032  0.85299880    -0.77900
C2285       C  0.66372039  0.00183565  0.87703125     0.82900
N2286       N  0.63086403  0.00171649  0.86801411    -0.79700
N2287       N  0.67640608  0.96347049  0.96246947    -0.36500
N2288       N  0.67467619  0.96387713  0.53566225    -0.57100
N2289       N  0.67617788  0.53701145  0.53600070    -0.36500
N2290       N  0.67569015  0.53661567  0.96282897    -0.57100
C2291       C  0.66864958  0.93102367  0.96843854     0.27100
C2292       C  0.66925287  0.96959788  0.92982281     0.27100
C2293       C  0.66788756  0.53092679  0.56828494     0.27100
C2294       C  0.66834845  0.56945913  0.52965254     0.27100
C2295       C  0.67732318  0.93045425  0.53056535     0.35700
C2296       C  0.67745349  0.96906372  0.56905739     0.35700
C2297       C  0.67941780  0.53136388  0.92957513     0.35700
C2298       C  0.67937698  0.56986554  0.96812737     0.35700
C2299       C  0.65759148  0.91609268  0.93892567    -0.21800
C2300       C  0.65814044  0.94031955  0.91465385    -0.21800
C2301       C  0.65568131  0.56014973  0.58287984    -0.21800
C2302       C  0.65611114  0.58436633  0.55860548    -0.21800
C2303       C  0.68184184  0.91425879  0.56094027    -0.22900
C2304       C  0.68195056  0.93872284  0.58532843    -0.22900
C2305       C  0.68567631  0.56146376  0.91361809    -0.22900
C2306       C  0.68567812  0.58586681  0.93805942    -0.22800
C2307       C  0.67160591  0.91416543  0.99951638    -0.18200
C2308       C  0.67282387  0.00062087  0.91303410    -0.18200
C2309       C  0.67245094  0.58632854  0.99875735    -0.18200
C2310       C  0.67161862  0.00012191  0.58526178    -0.18200
H2311       H  0.65000352  0.89033221  0.93510341     0.14700
H2312       H  0.65153069  0.93656922  0.88865109     0.14700
H2313       H  0.64739206  0.56382239  0.60843819     0.14700
H2314       H  0.64864250  0.61015748  0.56211961     0.14700
H2315       H  0.68375123  0.88753811  0.56519312     0.13000
H2316       H  0.68390777  0.93453628  0.61205724     0.13000
H2317       H  0.68876483  0.56557749  0.88701905     0.13000
H2318       H  0.68872941  0.61247693  0.93397846     0.13000
H2319       H  0.68671746  0.98023610  0.97949969     0.26300
H2320       H  0.68743305  0.52024587  0.51954787     0.26200
C2321       C  0.66293876  0.99956845  0.62121882     0.80300
N2322       N  0.68710179  0.99954979  0.64532538    -0.78000
C2323       C  0.67832795  0.99985909  0.67822818     0.82800
N2324       N  0.64542131  0.00025638  0.68699700    -0.77900
C2325       C  0.62131891  0.00041622  0.66282709     0.82900
N2326       N  0.63019101  0.00003613  0.63008139    -0.79700
C2327       C  0.83581763  0.62191734  0.99874664     0.80300
N2328       N  0.86856870  0.63078035  0.99925477    -0.78000
C2329       C  0.87744631  0.66352938  0.99969623     0.82800
N2330       N  0.85334822  0.68769765  0.99956224    -0.78500
C2331       C  0.82044169  0.67892659  0.99912696     0.82900
N2332       N  0.81166136  0.64602405  0.99875371    -0.79700
C2333       C  0.00126958  0.62212437  0.83482024     0.80300
N2334       N  0.00143023  0.64615937  0.81085801    -0.78000
C2335       C  0.00164029  0.67908107  0.81984758     0.82800
N2336       N  0.00142471  0.68799917  0.85279978    -0.77900
C2337       C  0.00125668  0.66396398  0.87678162     0.82900
N2338       N  0.00113617  0.63113069  0.86767833    -0.79700
N2339       N  0.96273198  0.67679699  0.96213039    -0.36500
N2340       N  0.53588681  0.67624884  0.96255244    -0.57100
N2341       N  0.53621397  0.67682403  0.53569272    -0.36500
N2342       N  0.96302846  0.67511740  0.53531882    -0.57100
C2343       C  0.96907312  0.66895138  0.92968172     0.27100
C2344       C  0.93042679  0.66857996  0.96821236     0.27100
C2345       C  0.56885978  0.66973467  0.52954842     0.27100
C2346       C  0.53025844  0.66902840  0.56812265     0.27100
C2347       C  0.53062179  0.67986770  0.92928936     0.35700
C2348       C  0.56913892  0.67996465  0.96782753     0.35700
C2349       C  0.92964698  0.67805609  0.53015343     0.35700
C2350       C  0.96816396  0.67783615  0.56872554     0.35700
C2351       C  0.94009041  0.65678300  0.91476869    -0.21800
C2352       C  0.91580906  0.65641000  0.93898278    -0.21800
C2353       C  0.58405235  0.65862463  0.55881346    -0.21800
C2354       C  0.55978239  0.65799349  0.58303970    -0.21800
C2355       C  0.56071063  0.68610562  0.91330281    -0.22900
C2356       C  0.58512818  0.68614447  0.93772780    -0.22900
C2357       C  0.91341999  0.68273307  0.56049122    -0.22900
C2358       C  0.93782822  0.68256769  0.58493659    -0.22800
C2359       C  0.99998613  0.67297496  0.91281270    -0.18200
C2360       C  0.91340914  0.67219890  0.99912135    -0.18200
C2361       C  0.99919543  0.67200167  0.58498795    -0.18200
C2362       C  0.58562839  0.67338795  0.99853024    -0.18200
H2363       H  0.93656338  0.64931798  0.88897527     0.14700
H2364       H  0.89022936  0.64818299  0.93530429     0.14700
H2365       H  0.61007432  0.65211154  0.56256439     0.14700
H2366       H  0.56361914  0.65041088  0.60879691     0.14700
H2367       H  0.56481888  0.68910000  0.88669196     0.13000
H2368       H  0.61173400  0.68920591  0.93362963     0.13000
H2369       H  0.88670489  0.68485785  0.56468678     0.13000
H2370       H  0.93361199  0.68459352  0.61165511     0.13000
H2371       H  0.97920292  0.68802153  0.97890794     0.26300
H2372       H  0.51917198  0.68715247  0.51894561     0.26200
C2373       C  0.99862816  0.66322320  0.62093217     0.80300
N2374       N  0.99870597  0.68736972  0.64504993    -0.78000
C2375       C  0.99933059  0.67859456  0.67794384     0.82800
N2376       N  0.99995155  0.64569682  0.68670698    -0.77900
C2377       C  0.00002346  0.62158868  0.66255093     0.82900
N2378       N  0.99932544  0.63045424  0.62978595    -0.79700
C2379       C  0.99744880  0.83547531  0.62138368     0.80300
N2380       N  0.99726688  0.81151077  0.64541788    -0.78000
C2381       C  0.99707958  0.82050128  0.67833958     0.82800
N2382       N  0.99734160  0.85345614  0.68725474    -0.77900
C2383       C  0.99753391  0.87743820  0.66321874     0.82900
N2384       N  0.99762726  0.86833345  0.63038890    -0.79700
C2385       C  0.83529168  0.99812905  0.62168096     0.80300
N2386       N  0.86812134  0.99814370  0.63077490    -0.78000
C2387       C  0.87713212  0.99794523  0.66362625     0.82800
N2388       N  0.85310325  0.99782267  0.68759770    -0.77900
C2389       C  0.82017877  0.99771767  0.67861084     0.82900
N2390       N  0.81125901  0.99800079  0.64566216    -0.79700
N2391       N  0.53603966  0.96281110  0.67606952    -0.36500
N2392       N  0.96287954  0.96320720  0.67553493    -0.57100
N2393       N  0.96241578  0.53634772  0.67610932    -0.36500
N2394       N  0.53561979  0.53597140  0.67449159    -0.57100
C2395       C  0.52970833  0.93035604  0.66822908     0.27100
C2396       C  0.56834743  0.96890739  0.66787753     0.27100
C2397       C  0.92976850  0.53021237  0.66900108     0.27100
C2398       C  0.96838394  0.56878326  0.66834424     0.27100
C2399       C  0.96814163  0.92993311  0.67907334     0.35700
C2400       C  0.92961912  0.96845951  0.67920067     0.35700
C2401       C  0.56900694  0.53081622  0.67738303     0.35700
C2402       C  0.53049500  0.56938591  0.67713060     0.35700
C2403       C  0.55870123  0.91545224  0.65608578    -0.21800
C2404       C  0.58297802  0.93967884  0.65572719    -0.21800
C2405       C  0.91458611  0.55948749  0.65790806    -0.21800
C2406       C  0.93886385  0.58371300  0.65731475    -0.21800
C2407       C  0.93804234  0.91391895  0.68520518    -0.22900
C2408       C  0.91362366  0.93833439  0.68526250    -0.22900
C2409       C  0.58524727  0.56116813  0.68195052    -0.22900
C2410       C  0.56084373  0.58561034  0.68176449    -0.22800
C2411       C  0.99879349  0.91347393  0.67222270    -0.18200
C2412       C  0.58535462  0.99983102  0.67148396    -0.18200
C2413       C  0.99945652  0.58564206  0.67131593    -0.18200
C2414       C  0.91312402  0.99917850  0.67271233    -0.18200
H2415       H  0.56223486  0.88965963  0.64861747     0.14700
H2416       H  0.60856105  0.93601246  0.64751323     0.14700
H2417       H  0.88857107  0.56323938  0.65135723     0.14700
H2418       H  0.93503815  0.60947515  0.64974340     0.14700
H2419       H  0.93392866  0.88729780  0.68811892     0.13000
H2420       H  0.88701344  0.93421620  0.68826311     0.13000
H2421       H  0.61196720  0.56537379  0.68400892     0.13000
H2422       H  0.56507157  0.61233482  0.68370458     0.13000
H2423       H  0.51955932  0.97958718  0.68727430     0.26300
H2424       H  0.97945430  0.51958941  0.68642443     0.26200
C2425       C  0.87697373  0.83590128  0.00106225     0.80300
N2426       N  0.86787962  0.86873726  0.00103874    -0.78000
C2427       C  0.83502263  0.87774834  0.00117663     0.82800
N2428       N  0.81105105  0.85370806  0.00124158    -0.77900
C2429       C  0.82003489  0.82078112  0.00135187     0.82900
N2430       N  0.85298489  0.81186790  0.00113979    -0.79700
C2431       C  0.99983895  0.83631897  0.87719165     0.80300
N2432       N  0.99976836  0.81214560  0.85308862    -0.78000
C2433       C  0.99936839  0.82090988  0.82017901     0.82800
N2434       N  0.99896403  0.85381495  0.81140144    -0.77900
C2435       C  0.99888894  0.87792717  0.83556311     0.82900
N2436       N  0.99936400  0.86906445  0.86831231    -0.79700
C2437       C  0.87760208  0.99917420  0.83589453     0.80300
N2438       N  0.85348965  0.99923588  0.81174260    -0.78000
C2439       C  0.82059270  0.99994470  0.82050651     0.82800
N2440       N  0.81182006  0.00066063  0.85340280    -0.77900
C2441       C  0.83596971  0.00074537  0.87752012     0.82900
N2442       N  0.86873726  0.99996747  0.86866012    -0.79700
N2443       N  0.82238600  0.96317984  0.96278725    -0.36500
N2444       N  0.82304164  0.96350426  0.53592007    -0.57100
N2445       N  0.82239663  0.53664158  0.53627069    -0.36500
N2446       N  0.82407887  0.53634926  0.96307730    -0.57100
C2447       C  0.82949686  0.93052687  0.96892010     0.27100
C2448       C  0.83013241  0.96913249  0.93033943     0.27100
C2449       C  0.83017811  0.53029527  0.56873210     0.27100
C2450       C  0.83064794  0.56894362  0.53021353     0.27100
C2451       C  0.81935632  0.93024479  0.53065327     0.35700
C2452       C  0.81941164  0.96877325  0.56918112     0.35700
C2453       C  0.82143622  0.53123367  0.92965903     0.35700
C2454       C  0.82129170  0.56974579  0.96824542     0.35700
C2455       C  0.84056511  0.91533589  0.93964079    -0.21800
C2456       C  0.84114207  0.93960323  0.91541061    -0.21800
C2457       C  0.84233809  0.55926747  0.58367614    -0.21800
C2458       C  0.84277139  0.58355160  0.55946869    -0.21800
C2459       C  0.81318888  0.91425658  0.56075501    -0.22900
C2460       C  0.81319645  0.93868109  0.58517286    -0.22900
C2461       C  0.81690713  0.56159911  0.91344649    -0.22900
C2462       C  0.81679234  0.58600127  0.93789738    -0.22800
C2463       C  0.82592165  0.91375311  0.99994858    -0.18200
C2464       C  0.82719796  0.00020758  0.91347606    -0.18200
C2465       C  0.82712008  0.58596216  0.99929774    -0.18200
C2466       C  0.82629056  0.99941135  0.58565784    -0.18200
H2467       H  0.84710803  0.88931880  0.93588831     0.14700
H2468       H  0.84870341  0.93576545  0.88964702     0.14700
H2469       H  0.84976390  0.56278379  0.60948333     0.14700
H2470       H  0.85101459  0.60912443  0.56316657     0.14700
H2471       H  0.81014640  0.88764867  0.56485769     0.13000
H2472       H  0.81020171  0.93457577  0.61178439     0.13000
H2473       H  0.81500304  0.56583790  0.88672364     0.13000
H2474       H  0.81482901  0.61272827  0.93369882     0.13000
H2475       H  0.81210812  0.98022755  0.97955059     0.26300
H2476       H  0.81121090  0.52017361  0.51947119     0.26200
N2477       N  0.53642866  0.96323625  0.82226872    -0.36500
N2478       N  0.53596436  0.53639681  0.82281563    -0.57100
N2479       N  0.96282696  0.53672070  0.82220484    -0.36500
N2480       N  0.96322897  0.96351742  0.82390904    -0.57100
C2481       C  0.56886866  0.96959665  0.83015619     0.27100
C2482       C  0.53034686  0.93093080  0.83049381     0.27100
C2483       C  0.96898050  0.56936333  0.82933828     0.27100
C2484       C  0.93039989  0.53075686  0.83001388     0.27100
C2485       C  0.56922847  0.53114057  0.81920470     0.35700
C2486       C  0.53069046  0.56964521  0.81908263     0.35700
C2487       C  0.96838084  0.93011779  0.82110965     0.35700
C2488       C  0.92980382  0.96863558  0.82135986     0.35700
C2489       C  0.58377097  0.94063355  0.84236808    -0.21800
C2490       C  0.55956640  0.91633927  0.84271077    -0.21800
C2491       C  0.93972922  0.58454511  0.84049098    -0.21800
C2492       C  0.91549682  0.56027449  0.84109359    -0.21800
C2493       C  0.58521419  0.56122690  0.81294344    -0.22900
C2494       C  0.56078878  0.58563722  0.81288741    -0.22900
C2495       C  0.93801467  0.91386545  0.81668926    -0.22900
C2496       C  0.91357073  0.93826920  0.81687950    -0.22800
C2497       C  0.58574338  0.00051157  0.82614837    -0.18200
C2498       C  0.99943890  0.91389464  0.82688826    -0.18200
C2499       C  0.91355577  0.99969651  0.82711696    -0.18200
C2500       C  0.00000201  0.58613413  0.82570097    -0.18200
H2501       H  0.60954878  0.93713192  0.84990056     0.14700
H2502       H  0.56324062  0.89077331  0.85097426     0.14700
H2503       H  0.93599775  0.61055504  0.84707780     0.14700
H2504       H  0.88975044  0.56410323  0.84871511     0.14700
H2505       H  0.61182636  0.56534092  0.80996003     0.13000
H2506       H  0.56488871  0.61224306  0.80982142     0.13000
H2507       H  0.93380098  0.88713806  0.81474516     0.13000
H2508       H  0.88684130  0.93403115  0.81505277     0.13000
H2509       H  0.51965742  0.97969350  0.81102508     0.26300
H2510       H  0.97956591  0.51968404  0.81185514     0.26200
N2511       N  0.96230735  0.82302236  0.96249919    -0.36500
N2512       N  0.53550627  0.82468926  0.96278930    -0.57100
N2513       N  0.53588674  0.82293426  0.53598239    -0.36500
N2514       N  0.96274178  0.82349881  0.53565113    -0.57100
C2515       C  0.96839742  0.83131327  0.93021286     0.27100
C2516       C  0.92988241  0.83095312  0.96887614     0.27100
C2517       C  0.56831989  0.83074964  0.53004132     0.27100
C2518       C  0.52973495  0.83001710  0.56863457     0.27100
C2519       C  0.53034131  0.82184789  0.92939402     0.35700
C2520       C  0.56892875  0.82208590  0.96791301     0.35700
C2521       C  0.92947473  0.81990427  0.53038830     0.35700
C2522       C  0.96801543  0.81976160  0.56889868     0.35700
C2523       C  0.93920240  0.84362655  0.91565331    -0.21800
C2524       C  0.91500230  0.84326861  0.93994625    -0.21800
C2525       C  0.58322443  0.84178106  0.55957876    -0.21800
C2526       C  0.55899020  0.84114470  0.58384008    -0.21800
C2527       C  0.56069578  0.81734987  0.91315013    -0.22900
C2528       C  0.58514641  0.81753452  0.93755459    -0.22900
C2529       C  0.91348539  0.81364782  0.56047046    -0.22900
C2530       C  0.93791223  0.81358041  0.58488438    -0.22800
C2531       C  0.99928959  0.82766175  0.91316621    -0.18200
C2532       C  0.91300295  0.82687867  0.99977489    -0.18200
C2533       C  0.99871014  0.82636406  0.58539355    -0.18200
C2534       C  0.58519211  0.82783915  0.99897160    -0.18200
H2535       H  0.93553919  0.85195993  0.89010909     0.14700
H2536       H  0.88924076  0.85085441  0.93646298     0.14700
H2537       H  0.60897265  0.84939674  0.56342557     0.14700
H2538       H  0.56272225  0.84769812  0.60985962     0.14700
H2539       H  0.56489881  0.81535271  0.88642673     0.13000
H2540       H  0.61187132  0.81564583  0.93332267     0.13000
H2541       H  0.88687072  0.81068111  0.56458074     0.13000
H2542       H  0.93381025  0.81051862  0.61148878     0.13000
H2543       H  0.97905688  0.81170030  0.97892480     0.26300
H2544       H  0.51914240  0.81262282  0.51892777     0.26200
loop_ 
_geom_bond_atom_site_label_1 
_geom_bond_atom_site_label_2 
_geom_bond_distance 
_geom_bond_site_symmetry_2 
_ccdc_geom_bond_type 
O1           Ni9   1.917       .  S
O1           C11   1.280   1_554  A
O2           Ni9   1.918       .  S
O2          C330   1.280       .  A
O3           Ni9   1.919       .  S
O3           C13   1.280   1_554  A
O4           Ni9   1.918       .  S
O4          C332   1.280   1_554  A
O5          Ni10   1.918       .  S
O5           C14   1.280       .  A
O6          Ni10   1.919       .  S
O6          C331   1.280       .  A
O7          Ni10   1.918       .  S
O7           C12   1.280       .  A
O8          Ni10   1.918       .  S
O8          C329   1.280       .  A
Ni9        Ni328   2.394   1_554  S
Ni10       Ni327   2.394       .  S
C11         O326   1.280       .  A
C11         C363   1.459       .  S
C12         O320   1.280       .  A
C12         C203   1.459       .  S
C13         O324   1.280       .  A
C13         C371   1.460       .  S
C14         O322   1.280       .  A
C14         C105   1.460       .  S
O15         Ni23   1.919       .  S
O15          C25   1.280       .  A
O16         Ni23   1.918       .  S
O16          C26   1.280       .  A
O17         Ni23   1.918       .  S
O17          C27   1.280       .  A
O18         Ni23   1.918       .  S
O18          C28   1.280       .  A
O19         Ni24   1.918       .  S
O19         C664   1.280       .  A
O20         Ni24   1.918       .  S
O20         C663   1.280   1_545  A
O21         Ni24   1.918       .  S
O21         C662   1.280   1_545  A
O22         Ni24   1.919       .  S
O22         C661   1.280   1_545  A
Ni23       Ni660   2.394       .  S
Ni24       Ni659   2.394   1_545  S
C25         O658   1.280       .  A
C25         C213   1.460       .  S
C26         O657   1.280       .  A
C26          C97   1.460       .  S
C27         O656   1.280       .  A
C27         C163   1.459       .  S
C28         O655   1.280       .  A
C28          C57   1.460       .  S
O29         Ni37   1.918       .  S
O29          C39   1.280       .  A
O30         Ni37   1.919       .  S
O30          C40   1.280       .  A
O31         Ni37   1.918       .  S
O31          C41   1.280       .  A
O32         Ni37   1.918       .  S
O32          C42   1.280       .  A
O33         Ni38   1.918       .  S
O33        C1314   1.280   1_455  A
O34         Ni38   1.918       .  S
O34        C1313   1.280       .  A
O35         Ni38   1.918       .  S
O35        C1312   1.280   1_455  A
O36         Ni38   1.918       .  S
O36        C1311   1.280   1_455  A
Ni37      Ni1310   2.394       .  S
Ni38      Ni1309   2.394   1_455  S
C39        O1308   1.280       .  A
C39         C207   1.460       .  S
C40        O1307   1.280       .  A
C40         C149   1.460       .  S
C41        O1306   1.280       .  A
C41         C109   1.459       .  S
C42        O1305   1.280       .  A
C42         C155   1.459       .  S
C43          C83   1.480       .  S
C43          N44   1.358       .  A
C43          N48   1.357       .  A
N44          C45   1.360       .  A
C45         C329   1.459       .  S
C45          N46   1.360       .  A
N46          C47   1.357       .  A
C47         C136   1.480       .  S
C47          N48   1.357       .  A
C49         C308   1.478       .  S
C49          N50   1.356       .  A
C49          N54   1.358       .  A
N50          C51   1.356       .  A
C51          C81   1.478       .  S
C51          N52   1.358       .  A
N52          C53   1.360       .  A
C53         C331   1.460       .  S
C53          N54   1.360       .  A
C55         C271   1.481       .  S
C55          N56   1.358       .  A
C55          N60   1.357       .  A
N56          C57   1.360       .  A
C57          N58   1.360       .  A
N58          C59   1.358       .  A
C59          C82   1.481       .  S
C59          N60   1.357       .  A
N61          C66   1.355       .  A
N61          C65   1.355       .  A
N61          H93   1.036       .  S
N62          C69   1.351       .  A
N62          C70   1.351       .  A
N63          C68   1.355       .  A
N63          C67   1.355       .  A
N63          H94   1.037       .  S
N64          C71   1.351       .  A
N64          C72   1.351       .  A
C65          C73   1.387       .  A
C65          C81   1.417       .  A
C66          C82   1.418       .  A
C66          C74   1.386       .  A
C67          C75   1.387       .  A
C67         C720   1.417       .  A
C68          C76   1.386       .  A
C68         C401   1.418   1_554  A
C69          C77   1.387       .  A
C69         C399   1.414   1_554  A
C70          C84   1.413       .  A
C70          C78   1.387       .  A
C71          C79   1.386       .  A
C71         C718   1.412       .  A
C72          C80   1.386       .  A
C72          C83   1.412       .  A
C73          C74   1.372       .  A
C73          H85   1.082       .  S
C74          H86   1.079       .  S
C75          C76   1.372       .  A
C75          H87   1.082       .  S
C76          H88   1.078       .  S
C77          C78   1.374       .  A
C77          H89   1.082       .  S
C78          H90   1.082       .  S
C79          C80   1.374       .  A
C79          H91   1.082       .  S
C80          H92   1.082       .  S
C81         C387   1.414       .  A
C82         C707   1.412       .  A
C83         C386   1.418       .  A
C84          C95   1.478       .  S
C84         C703   1.417       .  A
C95          N96   1.358       .  A
C95         N100   1.355       .  A
N96          C97   1.360       .  A
C97          N98   1.360       .  A
N98          C99   1.358       .  A
C99         C186   1.478       .  S
C99         N100   1.355       .  A
C101        C239   1.478       .  S
C101        N102   1.355       .  A
C101        N106   1.358       .  A
N102        C103   1.355       .  A
C103        C134   1.478       .  S
C103        N104   1.358       .  A
N104        C105   1.360       .  A
C105        N106   1.360       .  A
C107        C274   1.480       .  S
C107        N108   1.357       .  A
C107        N112   1.357       .  A
N108        C109   1.360       .  A
C109        N110   1.360       .  A
N110        C111   1.358       .  A
C111        C133   1.481       .  S
C111        N112   1.357       .  A
N113        C118   1.355       .  A
N113        C117   1.355       .  A
N113        H145   1.037       .  S
N114        C121   1.351       .  A
N114        C122   1.351       .  A
N115        C120   1.355       .  A
N115        C119   1.355       .  A
N115        H146   1.036       .  S
N116        C123   1.351       .  A
N116        C124   1.351       .  A
C117        C125   1.386       .  A
C117        C133   1.418       .  A
C118        C134   1.417       .  A
C118        C126   1.387       .  A
C119        C127   1.386       .  A
C119        C454   1.418   1_554  A
C120        C128   1.388       .  A
C120       C1407   1.417   1_455  A
C121        C129   1.386       .  A
C121       C1405   1.412   1_455  A
C122        C136   1.412       .  A
C122        C130   1.386       .  A
C123        C131   1.387       .  A
C123        C452   1.413   1_554  A
C124        C132   1.387       .  A
C124        C135   1.413       .  A
C125        C126   1.372       .  A
C125        H137   1.078       .  S
C126        H138   1.082       .  S
C127        C128   1.372       .  A
C127        H139   1.079       .  S
C128        H140   1.082       .  S
C129        C130   1.374       .  A
C129        H141   1.082       .  S
C130        H142   1.082       .  S
C131        C132   1.374       .  A
C131        H143   1.082       .  S
C132        H144   1.082       .  S
C133       C1393   1.412       .  A
C134        C441   1.413       .  A
C135        C147   1.478       .  S
C135       C1392   1.417       .  A
C136        C437   1.418       .  A
C147        N148   1.358       .  A
C147        N152   1.356       .  A
N148        C149   1.360       .  A
C149        N150   1.360       .  A
N150        C151   1.358       .  A
C151        C187   1.478       .  S
C151        N152   1.356       .  A
C153        C307   1.480       .  S
C153        N154   1.357       .  A
C153        N158   1.357       .  A
N154        C155   1.360       .  A
C155        N156   1.360       .  A
N156        C157   1.358       .  A
C157        C185   1.481       .  S
C157        N158   1.357       .  A
C159        C240   1.480       .  S
C159        N160   1.357       .  A
C159        N164   1.358       .  A
N160        C161   1.357       .  A
C161        C188   1.480       .  S
C161        N162   1.357       .  A
N162        C163   1.360       .  A
C163        N164   1.360       .  A
N165        C170   1.355       .  A
N165        C169   1.355       .  A
N165        H197   1.037       .  S
N166        C173   1.351       .  A
N166        C174   1.351       .  A
N167        C172   1.354       .  A
N167        C171   1.354       .  A
N167        H198   1.036       .  S
N168        C175   1.351       .  A
N168        C176   1.351       .  A
C169        C177   1.386       .  A
C169       C1457   1.418   1_455  A
C170        C186   1.417       .  A
C170        C178   1.387       .  A
C171        C179   1.386       .  A
C171        C824   1.418   1_545  A
C172        C187   1.417       .  A
C172        C180   1.387       .  A
C173        C185   1.412       .  A
C173        C181   1.386       .  A
C174        C188   1.412       .  A
C174        C182   1.386       .  A
C175        C183   1.387       .  A
C175        C822   1.413   1_545  A
C176        C184   1.387       .  A
C176       C1459   1.413   1_455  A
C177        C178   1.372       .  A
C177        H189   1.078       .  S
C178        H190   1.082       .  S
C179        C180   1.372       .  A
C179        H191   1.079       .  S
C180        H192   1.082       .  S
C181        C182   1.374       .  A
C181        H193   1.082       .  S
C182        H194   1.082       .  S
C183        C184   1.374       .  A
C183        H195   1.082       .  S
C184        H196   1.082       .  S
C185       C1441   1.418       .  A
C186        C811   1.413       .  A
C187       C1448   1.413       .  A
C188        C807   1.418       .  A
C199        C306   1.481       .  S
C199        N200   1.357       .  A
C199        N204   1.358       .  A
N200        C201   1.357       .  A
C201        C237   1.480       .  S
C201        N202   1.357       .  A
N202        C203   1.360       .  A
C203        N204   1.360       .  A
C205        C305   1.478       .  S
C205        N206   1.358       .  A
C205        N210   1.355       .  A
N206        C207   1.360       .  A
C207        N208   1.360       .  A
N208        C209   1.358       .  A
C209        C272   1.478       .  S
C209        N210   1.355       .  A
C211        C273   1.478       .  S
C211        N212   1.358       .  A
C211        N216   1.356       .  A
N212        C213   1.360       .  A
C213        N214   1.360       .  A
N214        C215   1.358       .  A
C215        C238   1.478       .  S
C215        N216   1.356       .  A
N217        C222   1.355       .  A
N217        C221   1.355       .  A
N217        H249   1.036       .  S
N218        C225   1.351       .  A
N218        C226   1.351       .  A
N219        C224   1.355       .  A
N219        C223   1.355       .  A
N219        H250   1.037       .  S
N220        C227   1.351       .  A
N220        C228   1.351       .  A
C221        C229   1.386       .  A
C221        C237   1.418       .  A
C222        C238   1.417       .  A
C222        C230   1.387       .  A
C223        C231   1.386       .  A
C223        C876   1.418   1_545  A
C224        C232   1.387       .  A
C224        C557   1.417   1_554  A
C225        C233   1.386       .  A
C225        C555   1.412   1_554  A
C226        C240   1.412       .  A
C226        C234   1.386       .  A
C227        C235   1.387       .  A
C227        C874   1.414       .  A
C228        C236   1.387       .  A
C228        C239   1.413       .  A
C229        C230   1.372       .  A
C229        H241   1.079       .  S
C230        H242   1.082       .  S
C231        C232   1.372       .  A
C231        H243   1.078       .  S
C232        H244   1.082       .  S
C233        C234   1.374       .  A
C233        H245   1.082       .  S
C234        H246   1.082       .  S
C235        C236   1.374       .  A
C235        H247   1.082       .  S
C236        H248   1.082       .  S
C237        C543   1.412       .  A
C238        C863   1.414       .  A
C239        C542   1.417       .  A
C240        C859   1.418       .  A
N251        C256   1.355       .  A
N251        C255   1.355       .  A
N251        H283   1.037       .  S
N252        C259   1.351       .  A
N252        C260   1.351       .  A
N253        C258   1.355       .  A
N253        C257   1.355       .  A
N253        H284   1.036       .  S
N254        C261   1.351       .  A
N254        C262   1.351       .  A
C255        C263   1.386       .  A
C255        C271   1.418       .  A
C256        C264   1.387       .  A
C256       C1544   1.417   1_455  A
C257        C265   1.386       .  A
C257        C274   1.418       .  A
C258        C266   1.388       .  A
C258        C909   1.417   1_545  A
C259        C267   1.386       .  A
C259        C907   1.412       .  A
C260        C268   1.386       .  A
C260       C1546   1.412       .  A
C261        C269   1.387       .  A
C261        C272   1.413       .  A
C262        C270   1.387       .  A
C262        C273   1.414       .  A
C263        C264   1.372       .  A
C263        H275   1.078       .  S
C264        H276   1.082       .  S
C265        C266   1.372       .  A
C265        H277   1.079       .  S
C266        H278   1.082       .  S
C267        C268   1.374       .  A
C267        H279   1.082       .  S
C268        H280   1.082       .  S
C269        C270   1.374       .  A
C269        H281   1.082       .  S
C270        H282   1.082       .  S
C271        C895   1.412       .  A
C272       C1528   1.417       .  A
C273        C894   1.417       .  A
C274       C1532   1.412       .  A
N285        C290   1.355       .  A
N285        C289   1.355       .  A
N285        H317   1.037       .  S
N286        C293   1.351       .  A
N286        C294   1.351       .  A
N287        C292   1.355       .  A
N287        C291   1.355       .  A
N287        H318   1.036       .  S
N288        C295   1.351       .  A
N288        C296   1.351       .  A
C289        C297   1.387       .  A
C289        C305   1.417       .  A
C290        C306   1.418       .  A
C290        C298   1.386       .  A
C291        C299   1.388       .  A
C291        C626   1.417   1_554  A
C292        C300   1.386       .  A
C292       C1579   1.418   1_455  A
C293        C301   1.387       .  A
C293       C1577   1.413   1_455  A
C294        C308   1.414       .  A
C294        C302   1.387       .  A
C295        C303   1.386       .  A
C295        C624   1.412   1_554  A
C296        C304   1.386       .  A
C296        C307   1.412       .  A
C297        C298   1.371       .  A
C297        H309   1.082       .  S
C298        H310   1.078       .  S
C299        C300   1.372       .  A
C299        H311   1.082       .  S
C300        H312   1.079       .  S
C301        C302   1.374       .  A
C301        H313   1.082       .  S
C302        H314   1.082       .  S
C303        C304   1.374       .  A
C303        H315   1.082       .  S
C304        H316   1.082       .  S
C305       C1565   1.413       .  A
C306        C613   1.412       .  A
C307       C1564   1.418       .  A
C308        C609   1.417       .  A
O319       Ni327   1.917       .  S
O319        C329   1.280       .  A
O320       Ni327   1.918       .  S
O321       Ni327   1.919       .  S
O321        C331   1.280       .  A
O322       Ni327   1.918       .  S
O323       Ni328   1.918       .  S
O323        C332   1.280       .  A
O324       Ni328   1.919       .  S
O325       Ni328   1.918       .  S
O325        C330   1.280   1_556  A
O326       Ni328   1.918       .  S
C330        C521   1.459       .  S
C332        C423   1.460       .  S
O333       Ni341   1.919       .  S
O333        C343   1.280       .  A
O334       Ni341   1.918       .  S
O334        C344   1.280       .  A
O335       Ni341   1.918       .  S
O335        C345   1.280       .  A
O336       Ni341   1.918       .  S
O336        C346   1.280       .  A
O337       Ni342   1.918       .  S
O337        C982   1.280       .  A
O338       Ni342   1.918       .  S
O338        C981   1.280   1_545  A
O339       Ni342   1.918       .  S
O339        C980   1.280   1_545  A
O340       Ni342   1.919       .  S
O340        C979   1.280   1_545  A
Ni341      Ni978   2.394       .  S
Ni342      Ni977   2.394   1_545  S
C343        O976   1.280       .  A
C343        C531   1.460       .  S
C344        O975   1.280       .  A
C344        C415   1.460       .  S
C345        O974   1.280       .  A
C345        C481   1.459       .  S
C346        O973   1.280       .  A
C346        C375   1.460       .  S
O347       Ni355   1.918       .  S
O347        C357   1.280       .  A
O348       Ni355   1.919       .  S
O348        C358   1.280       .  A
O349       Ni355   1.918       .  S
O349        C359   1.280       .  A
O350       Ni355   1.918       .  S
O350        C360   1.280       .  A
O351       Ni356   1.918       .  S
O351       C1632   1.280   1_455  A
O352       Ni356   1.918       .  S
O352       C1631   1.280       .  A
O353       Ni356   1.918       .  S
O353       C1630   1.280   1_455  A
O354       Ni356   1.918       .  S
O354       C1629   1.280   1_455  A
Ni355     Ni1628   2.394       .  S
Ni356     Ni1627   2.394   1_455  S
C357       O1626   1.280       .  A
C357        C525   1.460       .  S
C358       O1625   1.280       .  A
C358        C467   1.460       .  S
C359       O1624   1.280       .  A
C359        C427   1.459       .  S
C360       O1623   1.280       .  A
C360        C473   1.459       .  S
C361        C401   1.480       .  S
C361        N362   1.358       .  A
C361        N366   1.357       .  A
N362        C363   1.360       .  A
C363        N364   1.360       .  A
N364        C365   1.357       .  A
C365        C454   1.480       .  S
C365        N366   1.357       .  A
C367        C626   1.478       .  S
C367        N368   1.356       .  A
C367        N372   1.358       .  A
N368        C369   1.356       .  A
C369        C399   1.478       .  S
C369        N370   1.358       .  A
N370        C371   1.360       .  A
C371        N372   1.360       .  A
C373        C589   1.481       .  S
C373        N374   1.358       .  A
C373        N378   1.357       .  A
N374        C375   1.360       .  A
C375        N376   1.360       .  A
N376        C377   1.358       .  A
C377        C400   1.481       .  S
C377        N378   1.357       .  A
N379        C384   1.355       .  A
N379        C383   1.355       .  A
N379        H411   1.036       .  S
N380        C387   1.351       .  A
N380        C388   1.351       .  A
N381        C386   1.355       .  A
N381        C385   1.355       .  A
N381        H412   1.037       .  S
N382        C389   1.351       .  A
N382        C390   1.351       .  A
C383        C391   1.387       .  A
C383        C399   1.417       .  A
C384        C400   1.418       .  A
C384        C392   1.386       .  A
C385        C393   1.387       .  A
C385       C1038   1.417       .  A
C386        C394   1.386       .  A
C387        C395   1.387       .  A
C388        C402   1.413       .  A
C388        C396   1.387       .  A
C389        C397   1.386       .  A
C389       C1036   1.412       .  A
C390        C398   1.386       .  A
C390        C401   1.412       .  A
C391        C392   1.372       .  A
C391        H403   1.082       .  S
C392        H404   1.079       .  S
C393        C394   1.372       .  A
C393        H405   1.082       .  S
C394        H406   1.078       .  S
C395        C396   1.374       .  A
C395        H407   1.082       .  S
C396        H408   1.082       .  S
C397        C398   1.374       .  A
C397        H409   1.082       .  S
C398        H410   1.082       .  S
C400       C1025   1.412       .  A
C402        C413   1.478       .  S
C402       C1021   1.417       .  A
C413        N414   1.358       .  A
C413        N418   1.355       .  A
N414        C415   1.360       .  A
C415        N416   1.360       .  A
N416        C417   1.358       .  A
C417        C504   1.478       .  S
C417        N418   1.355       .  A
C419        C557   1.478       .  S
C419        N420   1.355       .  A
C419        N424   1.358       .  A
N420        C421   1.355       .  A
C421        C452   1.478       .  S
C421        N422   1.358       .  A
N422        C423   1.360       .  A
C423        N424   1.360       .  A
C425        C592   1.480       .  S
C425        N426   1.357       .  A
C425        N430   1.357       .  A
N426        C427   1.360       .  A
C427        N428   1.360       .  A
N428        C429   1.358       .  A
C429        C451   1.481       .  S
C429        N430   1.357       .  A
N431        C436   1.355       .  A
N431        C435   1.355       .  A
N431        H463   1.037       .  S
N432        C439   1.351       .  A
N432        C440   1.351       .  A
N433        C438   1.355       .  A
N433        C437   1.355       .  A
N433        H464   1.036       .  S
N434        C441   1.351       .  A
N434        C442   1.351       .  A
C435        C443   1.386       .  A
C435        C451   1.418       .  A
C436        C452   1.417       .  A
C436        C444   1.387       .  A
C437        C445   1.386       .  A
C438       C1725   1.417   1_455  A
C438        C446   1.388       .  A
C439       C1723   1.412   1_455  A
C439        C447   1.386       .  A
C440        C454   1.412       .  A
C440        C448   1.386       .  A
C441        C449   1.387       .  A
C442        C450   1.387       .  A
C442        C453   1.413       .  A
C443        C444   1.372       .  A
C443        H455   1.078       .  S
C444        H456   1.082       .  S
C445        C446   1.372       .  A
C445        H457   1.079       .  S
C446        H458   1.082       .  S
C447        C448   1.374       .  A
C447        H459   1.082       .  S
C448        H460   1.082       .  S
C449        C450   1.374       .  A
C449        H461   1.082       .  S
C450        H462   1.082       .  S
C451       C1711   1.412       .  A
C453        C465   1.478       .  S
C453       C1710   1.417       .  A
C465        N466   1.358       .  A
C465        N470   1.356       .  A
N466        C467   1.360       .  A
C467        N468   1.360       .  A
N468        C469   1.358       .  A
C469        C505   1.478       .  S
C469        N470   1.356       .  A
C471        C625   1.480       .  S
C471        N472   1.357       .  A
C471        N476   1.357       .  A
N472        C473   1.360       .  A
C473        N474   1.360       .  A
N474        C475   1.358       .  A
C475        C503   1.481       .  S
C475        N476   1.357       .  A
C477        C558   1.480       .  S
C477        N478   1.357       .  A
C477        N482   1.358       .  A
N478        C479   1.357       .  A
C479        C506   1.480       .  S
C479        N480   1.357       .  A
N480        C481   1.360       .  A
C481        N482   1.360       .  A
N483        C488   1.355       .  A
N483        C487   1.355       .  A
N483        H515   1.037       .  S
N484        C491   1.351       .  A
N484        C492   1.351       .  A
N485        C490   1.354       .  A
N485        C489   1.354       .  A
N485        H516   1.036       .  S
N486        C493   1.351       .  A
N486        C494   1.351       .  A
C487        C495   1.386       .  A
C487       C1775   1.418   1_455  A
C488        C504   1.417       .  A
C488        C496   1.387       .  A
C489        C497   1.386       .  A
C489       C1142   1.418   1_545  A
C490        C505   1.417       .  A
C490        C498   1.387       .  A
C491        C503   1.412       .  A
C491        C499   1.386       .  A
C492        C506   1.412       .  A
C492        C500   1.386       .  A
C493        C501   1.387       .  A
C493       C1140   1.413   1_545  A
C494        C502   1.387       .  A
C494       C1777   1.413   1_455  A
C495        C496   1.372       .  A
C495        H507   1.078       .  S
C496        H508   1.082       .  S
C497        C498   1.372       .  A
C497        H509   1.079       .  S
C498        H510   1.082       .  S
C499        C500   1.374       .  A
C499        H511   1.082       .  S
C500        H512   1.082       .  S
C501        C502   1.374       .  A
C501        H513   1.082       .  S
C502        H514   1.082       .  S
C503       C1759   1.418       .  A
C504       C1129   1.413       .  A
C505       C1766   1.413       .  A
C506       C1125   1.418       .  A
C517        C624   1.481   1_554  S
C517        N518   1.357       .  A
C517        N522   1.358       .  A
N518        C519   1.357       .  A
C519        C555   1.480   1_554  S
C519        N520   1.357       .  A
N520        C521   1.360       .  A
C521        N522   1.360       .  A
C523        C623   1.478       .  S
C523        N524   1.358       .  A
C523        N528   1.355       .  A
N524        C525   1.360       .  A
C525        N526   1.360       .  A
N526        C527   1.358       .  A
C527        C590   1.478       .  S
C527        N528   1.355       .  A
C529        C591   1.478       .  S
C529        N530   1.358       .  A
C529        N534   1.356       .  A
N530        C531   1.360       .  A
C531        N532   1.360       .  A
N532        C533   1.358       .  A
C533        C556   1.478       .  S
C533        N534   1.356       .  A
N535        C540   1.355       .  A
N535        C539   1.355       .  A
N535        H567   1.036       .  S
N536        C543   1.351       .  A
N536        C544   1.351       .  A
N537        C542   1.355       .  A
N537        C541   1.355       .  A
N537        H568   1.037       .  S
N538        C545   1.351       .  A
N538        C546   1.351       .  A
C539        C547   1.386       .  A
C539        C555   1.418       .  A
C540        C556   1.417       .  A
C540        C548   1.387       .  A
C541        C549   1.386       .  A
C541       C1194   1.418   1_545  A
C542        C550   1.387       .  A
C543        C551   1.386       .  A
C544        C558   1.412       .  A
C544        C552   1.386       .  A
C545        C553   1.387       .  A
C545       C1192   1.414       .  A
C546        C554   1.387       .  A
C546        C557   1.413       .  A
C547        C548   1.372       .  A
C547        H559   1.079       .  S
C548        H560   1.082       .  S
C549        C550   1.372       .  A
C549        H561   1.078       .  S
C550        H562   1.082       .  S
C551        C552   1.374       .  A
C551        H563   1.082       .  S
C552        H564   1.082       .  S
C553        C554   1.374       .  A
C553        H565   1.082       .  S
C554        H566   1.082       .  S
C556       C1181   1.414       .  A
C558       C1177   1.418       .  A
N569        C574   1.355       .  A
N569        C573   1.355       .  A
N569        H601   1.037       .  S
N570        C577   1.351       .  A
N570        C578   1.351       .  A
N571        C576   1.355       .  A
N571        C575   1.355       .  A
N571        H602   1.036       .  S
N572        C579   1.351       .  A
N572        C580   1.351       .  A
C573        C581   1.386       .  A
C573        C589   1.418       .  A
C574       C1862   1.417   1_455  A
C574        C582   1.387       .  A
C575        C583   1.386       .  A
C575        C592   1.418       .  A
C576       C1227   1.417   1_545  A
C576        C584   1.388       .  A
C577       C1225   1.412       .  A
C577        C585   1.386       .  A
C578       C1864   1.412       .  A
C578        C586   1.386       .  A
C579        C587   1.387       .  A
C579        C590   1.413       .  A
C580        C588   1.387       .  A
C580        C591   1.414       .  A
C581        C582   1.372       .  A
C581        H593   1.078       .  S
C582        H594   1.082       .  S
C583        C584   1.372       .  A
C583        H595   1.079       .  S
C584        H596   1.082       .  S
C585        C586   1.374       .  A
C585        H597   1.082       .  S
C586        H598   1.082       .  S
C587        C588   1.374       .  A
C587        H599   1.082       .  S
C588        H600   1.082       .  S
C589       C1213   1.412       .  A
C590       C1846   1.417       .  A
C591       C1212   1.417       .  A
C592       C1850   1.412       .  A
N603        C608   1.355       .  A
N603        C607   1.355       .  A
N603        H635   1.037       .  S
N604        C611   1.351       .  A
N604        C612   1.351       .  A
N605        C610   1.355       .  A
N605        C609   1.355       .  A
N605        H636   1.036       .  S
N606        C613   1.351       .  A
N606        C614   1.351       .  A
C607        C615   1.387       .  A
C607        C623   1.417       .  A
C608        C624   1.418       .  A
C608        C616   1.386       .  A
C609        C617   1.388       .  A
C610       C1897   1.418   1_455  A
C610        C618   1.386       .  A
C611       C1895   1.413   1_455  A
C611        C619   1.387       .  A
C612        C626   1.414       .  A
C612        C620   1.387       .  A
C613        C621   1.386       .  A
C614        C622   1.386       .  A
C614        C625   1.412       .  A
C615        C616   1.371       .  A
C615        H627   1.082       .  S
C616        H628   1.078       .  S
C617        C618   1.372       .  A
C617        H629   1.082       .  S
C618        H630   1.079       .  S
C619        C620   1.374       .  A
C619        H631   1.082       .  S
C620        H632   1.082       .  S
C621        C622   1.374       .  A
C621        H633   1.082       .  S
C622        H634   1.082       .  S
C623       C1883   1.413       .  A
C625       C1882   1.418       .  A
O637       Ni645   1.918       .  S
O637        C647   1.280   1_554  A
O638       Ni645   1.918       .  S
O638        C966   1.280       .  A
O639       Ni645   1.919       .  S
O639        C649   1.280   1_554  A
O640       Ni645   1.918       .  S
O640        C968   1.280   1_554  A
O641       Ni646   1.918       .  S
O641        C650   1.280       .  A
O642       Ni646   1.919       .  S
O642        C967   1.280       .  A
O643       Ni646   1.918       .  S
O643        C648   1.280       .  A
O644       Ni646   1.918       .  S
O644        C965   1.280       .  A
Ni645      Ni964   2.394   1_554  S
Ni646      Ni963   2.394       .  S
C647        O962   1.280       .  A
C647        C999   1.459       .  S
C648        O956   1.280       .  A
C648        C839   1.459       .  S
C649        O960   1.280       .  A
C649       C1007   1.460       .  S
C650        O958   1.280       .  A
C650        C741   1.460       .  S
O651       Ni659   1.919       .  S
O651        C661   1.280       .  A
O652       Ni659   1.919       .  S
O652        C662   1.280       .  A
O653       Ni659   1.918       .  S
O653        C663   1.280       .  A
O654       Ni659   1.918       .  S
O654        C664   1.280   1_565  A
O655       Ni660   1.918       .  S
O656       Ni660   1.918       .  S
O657       Ni660   1.918       .  S
O658       Ni660   1.919       .  S
C661        C849   1.460       .  S
C662        C733   1.460       .  S
C663        C799   1.459       .  S
C664        C693   1.459       .  S
O665       Ni673   1.918       .  S
O665        C675   1.280       .  A
O666       Ni673   1.919       .  S
O666        C676   1.280       .  A
O667       Ni673   1.918       .  S
O667        C677   1.280       .  A
O668       Ni673   1.918       .  S
O668        C678   1.280       .  A
O669       Ni674   1.918       .  S
O669       C1950   1.280   1_455  A
O670       Ni674   1.918       .  S
O670       C1949   1.280       .  A
O671       Ni674   1.919       .  S
O671       C1948   1.280   1_455  A
O672       Ni674   1.918       .  S
O672       C1947   1.280   1_455  A
Ni673     Ni1946   2.394       .  S
Ni674     Ni1945   2.394   1_455  S
C675       O1944   1.280       .  A
C675        C843   1.460       .  S
C676       O1943   1.280       .  A
C676        C785   1.460       .  S
C677       O1942   1.280       .  A
C677        C745   1.459       .  S
C678       O1941   1.280       .  A
C678        C791   1.459       .  S
C679        C719   1.480       .  S
C679        N680   1.358       .  A
C679        N684   1.357       .  A
N680        C681   1.360       .  A
C681        C965   1.459       .  S
C681        N682   1.360       .  A
N682        C683   1.357       .  A
C683        C772   1.480       .  S
C683        N684   1.357       .  A
C685        C944   1.478       .  S
C685        N686   1.356       .  A
C685        N690   1.358       .  A
N686        C687   1.356       .  A
C687        C717   1.479       .  S
C687        N688   1.358       .  A
N688        C689   1.360       .  A
C689        C967   1.460       .  S
C689        N690   1.360       .  A
C691        C907   1.481       .  S
C691        N692   1.358       .  A
C691        N696   1.357       .  A
N692        C693   1.360       .  A
C693        N694   1.360       .  A
N694        C695   1.358       .  A
C695        C718   1.480       .  S
C695        N696   1.357       .  A
N697        C702   1.355       .  A
N697        C701   1.355       .  A
N697        H729   1.036       .  S
N698        C705   1.351       .  A
N698        C706   1.351       .  A
N699        C704   1.355       .  A
N699        C703   1.355       .  A
N699        H730   1.037       .  S
N700        C707   1.351       .  A
N700        C708   1.351       .  A
C701        C709   1.387       .  A
C701        C717   1.417       .  A
C702        C718   1.418   1_565  A
C702        C710   1.386       .  A
C703        C711   1.387       .  A
C704       C1037   1.418   1_554  A
C704        C712   1.386       .  A
C705       C1035   1.414   1_554  A
C705        C713   1.387       .  A
C706        C720   1.413   1_565  A
C706        C714   1.387       .  A
C707        C715   1.386       .  A
C708        C716   1.386       .  A
C708        C719   1.412       .  A
C709        C710   1.372       .  A
C709        H721   1.082       .  S
C710        H722   1.079       .  S
C711        C712   1.371       .  A
C711        H723   1.082       .  S
C712        H724   1.078       .  S
C713        C714   1.374       .  A
C713        H725   1.082       .  S
C714        H726   1.082       .  S
C715        C716   1.374       .  A
C715        H727   1.082       .  S
C716        H728   1.082       .  S
C717       C1023   1.414       .  A
C719       C1022   1.418       .  A
C720        C731   1.478   1_545  S
C731        N732   1.358       .  A
C731        N736   1.355   1_565  A
N732        C733   1.360       .  A
C733        N734   1.360   1_565  A
N734        C735   1.358       .  A
C735        C822   1.478   1_545  S
C735        N736   1.355       .  A
C737        C875   1.478       .  S
C737        N738   1.355       .  A
C737        N742   1.358       .  A
N738        C739   1.355       .  A
C739        C770   1.478       .  S
C739        N740   1.358       .  A
N740        C741   1.360       .  A
C741        N742   1.360       .  A
C743        C910   1.480       .  S
C743        N744   1.357       .  A
C743        N748   1.357       .  A
N744        C745   1.360       .  A
C745        N746   1.360       .  A
N746        C747   1.358       .  A
C747        C769   1.481       .  S
C747        N748   1.357       .  A
N749        C754   1.355       .  A
N749        C753   1.355       .  A
N749        H781   1.037       .  S
N750        C757   1.351       .  A
N750        C758   1.351       .  A
N751        C756   1.354       .  A
N751        C755   1.355       .  A
N751        H782   1.036       .  S
N752        C759   1.351       .  A
N752        C760   1.351       .  A
C753        C761   1.386       .  A
C753        C769   1.418       .  A
C754        C770   1.417       .  A
C754        C762   1.387       .  A
C755        C763   1.386       .  A
C755       C1090   1.418   1_554  A
C756       C2043   1.417   1_455  A
C756        C764   1.387       .  A
C757       C2041   1.412   1_455  A
C757        C765   1.386       .  A
C758        C772   1.412       .  A
C758        C766   1.386       .  A
C759        C767   1.387       .  A
C759       C1088   1.413   1_554  A
C760        C768   1.387       .  A
C760        C771   1.413       .  A
C761        C762   1.372       .  A
C761        H773   1.078       .  S
C762        H774   1.082       .  S
C763        C764   1.372       .  A
C763        H775   1.079       .  S
C764        H776   1.082       .  S
C765        C766   1.374       .  A
C765        H777   1.082       .  S
C766        H778   1.082       .  S
C767        C768   1.374       .  A
C767        H779   1.082       .  S
C768        H780   1.082       .  S
C769       C2029   1.412       .  A
C770       C1077   1.413       .  A
C771        C783   1.478       .  S
C771       C2028   1.417       .  A
C772       C1073   1.418       .  A
C783        N784   1.358       .  A
C783        N788   1.356       .  A
N784        C785   1.360       .  A
C785        N786   1.360       .  A
N786        C787   1.358       .  A
C787        C823   1.478       .  S
C787        N788   1.356       .  A
C789        C943   1.480       .  S
C789        N790   1.357       .  A
C789        N794   1.357       .  A
N790        C791   1.360       .  A
C791        N792   1.360       .  A
N792        C793   1.358       .  A
C793        C821   1.481       .  S
C793        N794   1.357       .  A
C795        C876   1.480       .  S
C795        N796   1.357       .  A
C795        N800   1.358       .  A
N796        C797   1.357       .  A
C797        C824   1.480       .  S
C797        N798   1.357       .  A
N798        C799   1.360       .  A
C799        N800   1.360       .  A
N801        C806   1.355       .  A
N801        C805   1.355       .  A
N801        H833   1.037       .  S
N802        C809   1.351       .  A
N802        C810   1.351       .  A
N803        C808   1.354       .  A
N803        C807   1.355       .  A
N803        H834   1.036       .  S
N804        C811   1.351       .  A
N804        C812   1.351       .  A
C805        C813   1.386       .  A
C805       C2093   1.418   1_455  A
C806        C822   1.417       .  A
C806        C814   1.387       .  A
C807        C815   1.386       .  A
C808        C823   1.417       .  A
C808        C816   1.388       .  A
C809        C821   1.412       .  A
C809        C817   1.386       .  A
C810        C824   1.412       .  A
C810        C818   1.386       .  A
C811        C819   1.387       .  A
C812        C820   1.387       .  A
C812       C2095   1.413   1_455  A
C813        C814   1.372       .  A
C813        H825   1.078       .  S
C814        H826   1.082       .  S
C815        C816   1.372       .  A
C815        H827   1.079       .  S
C816        H828   1.082       .  S
C817        C818   1.374       .  A
C817        H829   1.082       .  S
C818        H830   1.082       .  S
C819        C820   1.374       .  A
C819        H831   1.082       .  S
C820        H832   1.082       .  S
C821       C2077   1.418       .  A
C823       C2084   1.413       .  A
C835        C942   1.481       .  S
C835        N836   1.357       .  A
C835        N840   1.358       .  A
N836        C837   1.357       .  A
C837        C873   1.481       .  S
C837        N838   1.358       .  A
N838        C839   1.360       .  A
C839        N840   1.360       .  A
C841        C941   1.478       .  S
C841        N842   1.358       .  A
C841        N846   1.355       .  A
N842        C843   1.360       .  A
C843        N844   1.360       .  A
N844        C845   1.358       .  A
C845        C908   1.478       .  S
C845        N846   1.355       .  A
C847        C909   1.478       .  S
C847        N848   1.358       .  A
C847        N852   1.356       .  A
N848        C849   1.360       .  A
C849        N850   1.360   1_565  A
N850        C851   1.358       .  A
C851        C874   1.478       .  S
C851        N852   1.356   1_545  A
N853        C858   1.355       .  A
N853        C857   1.355       .  A
N853        H885   1.036       .  S
N854        C861   1.351       .  A
N854        C862   1.351       .  A
N855        C860   1.355       .  A
N855        C859   1.355       .  A
N855        H886   1.037       .  S
N856        C863   1.351       .  A
N856        C864   1.351       .  A
C857        C865   1.386       .  A
C857        C873   1.418       .  A
C858        C874   1.417   1_565  A
C858        C866   1.387       .  A
C859        C867   1.386       .  A
C860       C1193   1.417   1_554  A
C860        C868   1.387       .  A
C861       C1191   1.412   1_554  A
C861        C869   1.386       .  A
C862        C876   1.412       .  A
C862        C870   1.386       .  A
C863        C871   1.387       .  A
C864        C872   1.387       .  A
C864        C875   1.413       .  A
C865        C866   1.372       .  A
C865        H877   1.079       .  S
C866        H878   1.082       .  S
C867        C868   1.372       .  A
C867        H879   1.078       .  S
C868        H880   1.082       .  S
C869        C870   1.374       .  A
C869        H881   1.082       .  S
C870        H882   1.082       .  S
C871        C872   1.374       .  A
C871        H883   1.082       .  S
C872        H884   1.082       .  S
C873       C1179   1.412       .  A
C875       C1178   1.417       .  A
N887        C892   1.355       .  A
N887        C891   1.355       .  A
N887        H919   1.037       .  S
N888        C895   1.351       .  A
N888        C896   1.351       .  A
N889        C894   1.355       .  A
N889        C893   1.355       .  A
N889        H920   1.036       .  S
N890        C897   1.351       .  A
N890        C898   1.351       .  A
C891        C899   1.386       .  A
C891        C907   1.418   1_565  A
C892       C2180   1.417   1_455  A
C892        C900   1.387       .  A
C893        C901   1.386       .  A
C893        C910   1.418       .  A
C894        C902   1.388       .  A
C895        C903   1.386       .  A
C896       C2182   1.412       .  A
C896        C904   1.386       .  A
C897        C905   1.387       .  A
C897        C908   1.413       .  A
C898        C906   1.387       .  A
C898        C909   1.414       .  A
C899        C900   1.371       .  A
C899        H911   1.078       .  S
C900        H912   1.082       .  S
C901        C902   1.372       .  A
C901        H913   1.079       .  S
C902        H914   1.082       .  S
C903        C904   1.374       .  A
C903        H915   1.082       .  S
C904        H916   1.082       .  S
C905        C906   1.374       .  A
C905        H917   1.082       .  S
C906        H918   1.082       .  S
C908       C2164   1.417       .  A
C910       C2168   1.412       .  A
N921        C926   1.355       .  A
N921        C925   1.355       .  A
N921        H953   1.037       .  S
N922        C929   1.351       .  A
N922        C930   1.351       .  A
N923        C928   1.355       .  A
N923        C927   1.355       .  A
N923        H954   1.036       .  S
N924        C931   1.351       .  A
N924        C932   1.351       .  A
C925        C933   1.387       .  A
C925        C941   1.417       .  A
C926        C942   1.418       .  A
C926        C934   1.386       .  A
C927        C935   1.388       .  A
C927       C1262   1.417   1_554  A
C928       C2215   1.418   1_455  A
C928        C936   1.386       .  A
C929       C2213   1.413   1_455  A
C929        C937   1.387       .  A
C930        C944   1.414       .  A
C930        C938   1.387       .  A
C931        C939   1.386       .  A
C931       C1260   1.412   1_554  A
C932        C940   1.386       .  A
C932        C943   1.412       .  A
C933        C934   1.372       .  A
C933        H945   1.082       .  S
C934        H946   1.078       .  S
C935        C936   1.372       .  A
C935        H947   1.082       .  S
C936        H948   1.079       .  S
C937        C938   1.374       .  A
C937        H949   1.082       .  S
C938        H950   1.082       .  S
C939        C940   1.374       .  A
C939        H951   1.082       .  S
C940        H952   1.082       .  S
C941       C2201   1.413       .  A
C942       C1249   1.412       .  A
C943       C2200   1.418       .  A
C944       C1245   1.417       .  A
O955       Ni963   1.918       .  S
O955        C965   1.280       .  A
O956       Ni963   1.918       .  S
O957       Ni963   1.919       .  S
O957        C967   1.280       .  A
O958       Ni963   1.918       .  S
O959       Ni964   1.918       .  S
O959        C968   1.280       .  A
O960       Ni964   1.919       .  S
O961       Ni964   1.918       .  S
O961        C966   1.280   1_556  A
O962       Ni964   1.918       .  S
C966       C1157   1.459       .  S
C968       C1059   1.460       .  S
O969       Ni977   1.919       .  S
O969        C979   1.280       .  A
O970       Ni977   1.919       .  S
O970        C980   1.280       .  A
O971       Ni977   1.918       .  S
O971        C981   1.280       .  A
O972       Ni977   1.918       .  S
O972        C982   1.280   1_565  A
O973       Ni978   1.918       .  S
O974       Ni978   1.918       .  S
O975       Ni978   1.918       .  S
O976       Ni978   1.919       .  S
C979       C1167   1.460       .  S
C980       C1051   1.460       .  S
C981       C1117   1.459       .  S
C982       C1011   1.459       .  S
O983       Ni991   1.918       .  S
O983        C993   1.280       .  A
O984       Ni991   1.919       .  S
O984        C994   1.280       .  A
O985       Ni991   1.918       .  S
O985        C995   1.280       .  A
O986       Ni991   1.918       .  S
O986        C996   1.280       .  A
O987       Ni992   1.918       .  S
O987       C2268   1.280   1_455  A
O988       Ni992   1.918       .  S
O988       C2267   1.280       .  A
O989       Ni992   1.919       .  S
O989       C2266   1.280   1_455  A
O990       Ni992   1.918       .  S
O990       C2265   1.280   1_455  A
Ni991     Ni2264   2.394       .  S
Ni992     Ni2263   2.394   1_455  S
C993       O2262   1.280       .  A
C993       C1161   1.460       .  S
C994       O2261   1.280       .  A
C994       C1103   1.460       .  S
C995       O2260   1.280       .  A
C995       C1063   1.459       .  S
C996       O2259   1.280       .  A
C996       C1109   1.459       .  S
C997       C1037   1.480       .  S
C997        N998   1.358       .  A
C997       N1002   1.357       .  A
N998        C999   1.360       .  A
C999       N1000   1.360       .  A
N1000      C1001   1.357       .  A
C1001      C1090   1.480       .  S
C1001      N1002   1.357       .  A
C1003      C1262   1.478       .  S
C1003      N1004   1.356       .  A
C1003      N1008   1.358       .  A
N1004      C1005   1.356   1_556  A
C1005      C1035   1.479   1_554  S
C1005      N1006   1.358       .  A
N1006      C1007   1.360   1_554  A
C1007      N1008   1.360       .  A
C1009      C1225   1.481       .  S
C1009      N1010   1.358       .  A
C1009      N1014   1.357       .  A
N1010      C1011   1.360       .  A
C1011      N1012   1.360       .  A
N1012      C1013   1.358       .  A
C1013      C1036   1.480       .  S
C1013      N1014   1.357       .  A
N1015      C1020   1.355       .  A
N1015      C1019   1.355       .  A
N1015      H1047   1.036       .  S
N1016      C1023   1.351       .  A
N1016      C1024   1.351       .  A
N1017      C1022   1.355       .  A
N1017      C1021   1.355       .  A
N1017      H1048   1.037       .  S
N1018      C1025   1.351       .  A
N1018      C1026   1.351       .  A
C1019      C1027   1.387       .  A
C1019      C1035   1.417       .  A
C1020      C1036   1.418   1_565  A
C1020      C1028   1.386       .  A
C1021      C1029   1.387       .  A
C1022      C1030   1.386       .  A
C1023      C1031   1.387       .  A
C1024      C1038   1.413   1_565  A
C1024      C1032   1.387       .  A
C1025      C1033   1.386       .  A
C1026      C1034   1.386       .  A
C1026      C1037   1.412       .  A
C1027      C1028   1.372       .  A
C1027      H1039   1.082       .  S
C1028      H1040   1.079       .  S
C1029      C1030   1.371       .  A
C1029      H1041   1.082       .  S
C1030      H1042   1.078       .  S
C1031      C1032   1.374       .  A
C1031      H1043   1.082       .  S
C1032      H1044   1.082       .  S
C1033      C1034   1.374       .  A
C1033      H1045   1.082       .  S
C1034      H1046   1.082       .  S
C1038      C1049   1.478   1_545  S
C1049      N1050   1.358       .  A
C1049      N1054   1.355   1_565  A
N1050      C1051   1.360       .  A
C1051      N1052   1.360   1_565  A
N1052      C1053   1.358       .  A
C1053      C1140   1.478   1_545  S
C1053      N1054   1.355       .  A
C1055      C1193   1.478       .  S
C1055      N1056   1.355       .  A
C1055      N1060   1.358       .  A
N1056      C1057   1.355       .  A
C1057      C1088   1.478       .  S
C1057      N1058   1.358       .  A
N1058      C1059   1.360       .  A
C1059      N1060   1.360       .  A
C1061      C1228   1.480       .  S
C1061      N1062   1.357       .  A
C1061      N1066   1.357       .  A
N1062      C1063   1.360       .  A
C1063      N1064   1.360       .  A
N1064      C1065   1.358       .  A
C1065      C1087   1.481       .  S
C1065      N1066   1.357       .  A
N1067      C1072   1.355       .  A
N1067      C1071   1.355       .  A
N1067      H1099   1.037       .  S
N1068      C1075   1.351       .  A
N1068      C1076   1.351       .  A
N1069      C1074   1.354       .  A
N1069      C1073   1.355       .  A
N1069      H1100   1.036       .  S
N1070      C1077   1.351       .  A
N1070      C1078   1.351       .  A
C1071      C1079   1.386       .  A
C1071      C1087   1.418       .  A
C1072      C1088   1.417       .  A
C1072      C1080   1.387       .  A
C1073      C1081   1.386       .  A
C1074      C2361   1.417   1_455  A
C1074      C1082   1.387       .  A
C1075      C2359   1.412   1_455  A
C1075      C1083   1.386       .  A
C1076      C1090   1.412       .  A
C1076      C1084   1.386       .  A
C1077      C1085   1.387       .  A
C1078      C1086   1.387       .  A
C1078      C1089   1.413       .  A
C1079      C1080   1.372       .  A
C1079      H1091   1.078       .  S
C1080      H1092   1.082       .  S
C1081      C1082   1.372       .  A
C1081      H1093   1.079       .  S
C1082      H1094   1.082       .  S
C1083      C1084   1.374       .  A
C1083      H1095   1.082       .  S
C1084      H1096   1.082       .  S
C1085      C1086   1.374       .  A
C1085      H1097   1.082       .  S
C1086      H1098   1.082       .  S
C1087      C2347   1.412       .  A
C1089      C1101   1.478       .  S
C1089      C2346   1.417       .  A
C1101      N1102   1.358       .  A
C1101      N1106   1.356       .  A
N1102      C1103   1.360       .  A
C1103      N1104   1.360       .  A
N1104      C1105   1.358       .  A
C1105      C1141   1.478       .  S
C1105      N1106   1.356       .  A
C1107      C1261   1.480       .  S
C1107      N1108   1.357       .  A
C1107      N1112   1.357       .  A
N1108      C1109   1.360       .  A
C1109      N1110   1.360       .  A
N1110      C1111   1.358       .  A
C1111      C1139   1.481       .  S
C1111      N1112   1.357       .  A
C1113      C1194   1.480       .  S
C1113      N1114   1.357       .  A
C1113      N1118   1.358       .  A
N1114      C1115   1.357       .  A
C1115      C1142   1.480       .  S
C1115      N1116   1.357       .  A
N1116      C1117   1.360       .  A
C1117      N1118   1.360       .  A
N1119      C1124   1.355       .  A
N1119      C1123   1.355       .  A
N1119      H1151   1.037       .  S
N1120      C1127   1.351       .  A
N1120      C1128   1.351       .  A
N1121      C1126   1.354       .  A
N1121      C1125   1.355       .  A
N1121      H1152   1.036       .  S
N1122      C1129   1.351       .  A
N1122      C1130   1.351       .  A
C1123      C1131   1.386       .  A
C1123      C2411   1.418   1_455  A
C1124      C1140   1.417       .  A
C1124      C1132   1.387       .  A
C1125      C1133   1.386       .  A
C1126      C1141   1.417       .  A
C1126      C1134   1.388       .  A
C1127      C1139   1.412       .  A
C1127      C1135   1.386       .  A
C1128      C1142   1.412       .  A
C1128      C1136   1.386       .  A
C1129      C1137   1.387       .  A
C1130      C1138   1.387       .  A
C1130      C2413   1.413   1_455  A
C1131      C1132   1.372       .  A
C1131      H1143   1.078       .  S
C1132      H1144   1.082       .  S
C1133      C1134   1.372       .  A
C1133      H1145   1.079       .  S
C1134      H1146   1.082       .  S
C1135      C1136   1.374       .  A
C1135      H1147   1.082       .  S
C1136      H1148   1.082       .  S
C1137      C1138   1.374       .  A
C1137      H1149   1.082       .  S
C1138      H1150   1.082       .  S
C1139      C2395   1.418       .  A
C1141      C2402   1.413       .  A
C1153      C1260   1.481   1_554  S
C1153      N1154   1.357       .  A
C1153      N1158   1.358       .  A
N1154      C1155   1.357       .  A
C1155      C1191   1.481   1_554  S
C1155      N1156   1.358       .  A
N1156      C1157   1.360       .  A
C1157      N1158   1.360       .  A
C1159      C1259   1.478       .  S
C1159      N1160   1.358       .  A
C1159      N1164   1.355       .  A
N1160      C1161   1.360       .  A
C1161      N1162   1.360       .  A
N1162      C1163   1.358       .  A
C1163      C1226   1.478       .  S
C1163      N1164   1.355       .  A
C1165      C1227   1.478       .  S
C1165      N1166   1.358       .  A
C1165      N1170   1.356       .  A
N1166      C1167   1.360       .  A
C1167      N1168   1.360   1_565  A
N1168      C1169   1.358       .  A
C1169      C1192   1.478       .  S
C1169      N1170   1.356   1_545  A
N1171      C1176   1.355       .  A
N1171      C1175   1.355       .  A
N1171      H1203   1.036       .  S
N1172      C1179   1.351       .  A
N1172      C1180   1.351       .  A
N1173      C1178   1.355       .  A
N1173      C1177   1.355       .  A
N1173      H1204   1.037       .  S
N1174      C1181   1.351       .  A
N1174      C1182   1.351       .  A
C1175      C1183   1.386       .  A
C1175      C1191   1.418       .  A
C1176      C1192   1.417   1_565  A
C1176      C1184   1.387       .  A
C1177      C1185   1.386       .  A
C1178      C1186   1.387       .  A
C1179      C1187   1.386       .  A
C1180      C1194   1.412       .  A
C1180      C1188   1.386       .  A
C1181      C1189   1.387       .  A
C1182      C1190   1.387       .  A
C1182      C1193   1.413       .  A
C1183      C1184   1.372       .  A
C1183      H1195   1.079       .  S
C1184      H1196   1.082       .  S
C1185      C1186   1.372       .  A
C1185      H1197   1.078       .  S
C1186      H1198   1.082       .  S
C1187      C1188   1.374       .  A
C1187      H1199   1.082       .  S
C1188      H1200   1.082       .  S
C1189      C1190   1.374       .  A
C1189      H1201   1.082       .  S
C1190      H1202   1.082       .  S
N1205      C1210   1.355       .  A
N1205      C1209   1.355       .  A
N1205      H1237   1.037       .  S
N1206      C1213   1.351       .  A
N1206      C1214   1.351       .  A
N1207      C1212   1.355       .  A
N1207      C1211   1.355       .  A
N1207      H1238   1.036       .  S
N1208      C1215   1.351       .  A
N1208      C1216   1.351       .  A
C1209      C1217   1.386       .  A
C1209      C1225   1.418   1_565  A
C1210      C2498   1.417   1_455  A
C1210      C1218   1.387       .  A
C1211      C1219   1.386       .  A
C1211      C1228   1.418       .  A
C1212      C1220   1.388       .  A
C1213      C1221   1.386       .  A
C1214      C2500   1.412       .  A
C1214      C1222   1.386       .  A
C1215      C1223   1.387       .  A
C1215      C1226   1.413       .  A
C1216      C1224   1.387       .  A
C1216      C1227   1.414       .  A
C1217      C1218   1.371       .  A
C1217      H1229   1.078       .  S
C1218      H1230   1.082       .  S
C1219      C1220   1.372       .  A
C1219      H1231   1.079       .  S
C1220      H1232   1.082       .  S
C1221      C1222   1.374       .  A
C1221      H1233   1.082       .  S
C1222      H1234   1.082       .  S
C1223      C1224   1.374       .  A
C1223      H1235   1.082       .  S
C1224      H1236   1.082       .  S
C1226      C2482   1.417       .  A
C1228      C2486   1.412       .  A
N1239      C1244   1.355       .  A
N1239      C1243   1.355       .  A
N1239      H1271   1.037       .  S
N1240      C1247   1.351       .  A
N1240      C1248   1.351       .  A
N1241      C1246   1.355       .  A
N1241      C1245   1.355       .  A
N1241      H1272   1.036       .  S
N1242      C1249   1.351       .  A
N1242      C1250   1.351       .  A
C1243      C1251   1.387       .  A
C1243      C1259   1.417       .  A
C1244      C1260   1.418       .  A
C1244      C1252   1.386       .  A
C1245      C1253   1.388       .  A
C1246      C2533   1.418   1_455  A
C1246      C1254   1.386       .  A
C1247      C2531   1.413   1_455  A
C1247      C1255   1.387       .  A
C1248      C1262   1.414       .  A
C1248      C1256   1.387       .  A
C1249      C1257   1.386       .  A
C1250      C1258   1.386       .  A
C1250      C1261   1.412       .  A
C1251      C1252   1.372       .  A
C1251      H1263   1.082       .  S
C1252      H1264   1.078       .  S
C1253      C1254   1.372       .  A
C1253      H1265   1.082       .  S
C1254      H1266   1.079       .  S
C1255      C1256   1.374       .  A
C1255      H1267   1.082       .  S
C1256      H1268   1.082       .  S
C1257      C1258   1.374       .  A
C1257      H1269   1.082       .  S
C1258      H1270   1.082       .  S
C1259      C2519   1.413       .  A
C1261      C2518   1.418       .  A
O1273     Ni1281   1.917       .  S
O1273      C1283   1.280   1_554  A
O1274     Ni1281   1.918       .  S
O1274      C1602   1.280       .  A
O1275     Ni1281   1.919       .  S
O1275      C1285   1.280   1_554  A
O1276     Ni1281   1.918       .  S
O1276      C1604   1.280   1_554  A
O1277     Ni1282   1.918       .  S
O1277      C1286   1.280       .  A
O1278     Ni1282   1.919       .  S
O1278      C1603   1.280       .  A
O1279     Ni1282   1.918       .  S
O1279      C1284   1.280       .  A
O1280     Ni1282   1.918       .  S
O1280      C1601   1.280       .  A
Ni1281    Ni1600   2.394   1_554  S
Ni1282    Ni1599   2.394       .  S
C1283      O1598   1.280       .  A
C1283      C1635   1.459       .  S
C1284      O1592   1.280       .  A
C1284      C1475   1.459       .  S
C1285      O1596   1.280       .  A
C1285      C1643   1.460       .  S
C1286      O1594   1.280       .  A
C1286      C1377   1.460       .  S
O1287     Ni1295   1.919       .  S
O1287      C1297   1.280       .  A
O1288     Ni1295   1.918       .  S
O1288      C1298   1.280       .  A
O1289     Ni1295   1.918       .  S
O1289      C1299   1.280       .  A
O1290     Ni1295   1.918       .  S
O1290      C1300   1.280       .  A
O1291     Ni1296   1.918       .  S
O1291      C1936   1.280       .  A
O1292     Ni1296   1.918       .  S
O1292      C1935   1.280   1_545  A
O1293     Ni1296   1.918       .  S
O1293      C1934   1.280   1_545  A
O1294     Ni1296   1.919       .  S
O1294      C1933   1.280   1_545  A
Ni1295    Ni1932   2.394       .  S
Ni1296    Ni1931   2.394   1_545  S
C1297      O1930   1.280       .  A
C1297      C1485   1.460       .  S
C1298      O1929   1.280       .  A
C1298      C1369   1.460       .  S
C1299      O1928   1.280       .  A
C1299      C1435   1.459       .  S
C1300      O1927   1.280       .  A
C1300      C1329   1.460       .  S
O1301     Ni1309   1.918       .  S
O1301      C1311   1.280       .  A
O1302     Ni1309   1.919       .  S
O1302      C1312   1.280       .  A
O1303     Ni1309   1.918       .  S
O1303      C1313   1.280   1_655  A
O1304     Ni1309   1.918       .  S
O1304      C1314   1.280       .  A
O1305     Ni1310   1.918       .  S
O1306     Ni1310   1.918       .  S
O1307     Ni1310   1.918       .  S
O1308     Ni1310   1.918       .  S
C1311      C1479   1.460       .  S
C1312      C1421   1.460       .  S
C1313      C1381   1.459       .  S
C1314      C1427   1.459       .  S
C1315      C1355   1.480       .  S
C1315      N1316   1.358       .  A
C1315      N1320   1.357       .  A
N1316      C1317   1.360       .  A
C1317      C1601   1.459       .  S
C1317      N1318   1.360       .  A
N1318      C1319   1.357       .  A
C1319      C1408   1.480       .  S
C1319      N1320   1.357       .  A
C1321      C1580   1.478       .  S
C1321      N1322   1.356       .  A
C1321      N1326   1.358       .  A
N1322      C1323   1.356       .  A
C1323      C1353   1.478       .  S
C1323      N1324   1.358       .  A
N1324      C1325   1.360       .  A
C1325      C1603   1.460       .  S
C1325      N1326   1.360       .  A
C1327      C1543   1.481       .  S
C1327      N1328   1.358       .  A
C1327      N1332   1.357       .  A
N1328      C1329   1.360       .  A
C1329      N1330   1.360       .  A
N1330      C1331   1.358       .  A
C1331      C1354   1.481       .  S
C1331      N1332   1.357       .  A
N1333      C1338   1.355       .  A
N1333      C1337   1.355       .  A
N1333      H1365   1.036       .  S
N1334      C1341   1.351       .  A
N1334      C1342   1.351       .  A
N1335      C1340   1.355       .  A
N1335      C1339   1.355       .  A
N1335      H1366   1.037       .  S
N1336      C1343   1.351       .  A
N1336      C1344   1.351       .  A
C1337      C1345   1.387       .  A
C1337      C1353   1.417       .  A
C1338      C1354   1.418       .  A
C1338      C1346   1.386       .  A
C1339      C1347   1.387       .  A
C1339      C1992   1.417       .  A
C1340      C1673   1.418   1_554  A
C1340      C1348   1.386       .  A
C1341      C1671   1.414   1_554  A
C1341      C1349   1.387       .  A
C1342      C1356   1.413       .  A
C1342      C1350   1.387       .  A
C1343      C1351   1.386       .  A
C1343      C1990   1.412       .  A
C1344      C1352   1.386       .  A
C1344      C1355   1.412       .  A
C1345      C1346   1.372       .  A
C1345      H1357   1.082       .  S
C1346      H1358   1.079       .  S
C1347      C1348   1.372       .  A
C1347      H1359   1.082       .  S
C1348      H1360   1.078       .  S
C1349      C1350   1.374       .  A
C1349      H1361   1.082       .  S
C1350      H1362   1.082       .  S
C1351      C1352   1.374       .  A
C1351      H1363   1.082       .  S
C1352      H1364   1.082       .  S
C1353      C1659   1.414       .  A
C1354      C1979   1.412       .  A
C1355      C1658   1.418       .  A
C1356      C1367   1.478       .  S
C1356      C1975   1.417       .  A
C1367      N1368   1.358       .  A
C1367      N1372   1.355       .  A
N1368      C1369   1.360       .  A
C1369      N1370   1.360       .  A
N1370      C1371   1.358       .  A
C1371      C1458   1.478       .  S
C1371      N1372   1.355       .  A
C1373      C1511   1.478       .  S
C1373      N1374   1.355       .  A
C1373      N1378   1.358       .  A
N1374      C1375   1.355       .  A
C1375      C1406   1.478       .  S
C1375      N1376   1.358       .  A
N1376      C1377   1.360       .  A
C1377      N1378   1.360       .  A
C1379      C1546   1.480       .  S
C1379      N1380   1.357       .  A
C1379      N1384   1.357       .  A
N1380      C1381   1.360       .  A
C1381      N1382   1.360       .  A
N1382      C1383   1.358       .  A
C1383      C1405   1.481   1_455  S
C1383      N1384   1.357       .  A
N1385      C1390   1.355       .  A
N1385      C1389   1.355       .  A
N1385      H1417   1.037       .  S
N1386      C1393   1.351       .  A
N1386      C1394   1.351       .  A
N1387      C1392   1.355       .  A
N1387      C1391   1.355       .  A
N1387      H1418   1.036       .  S
N1388      C1395   1.351       .  A
N1388      C1396   1.351       .  A
C1389      C1397   1.386       .  A
C1389      C1405   1.418       .  A
C1390      C1406   1.417       .  A
C1390      C1398   1.387       .  A
C1391      C1399   1.386       .  A
C1391      C1726   1.418   1_554  A
C1392      C1400   1.388       .  A
C1393      C1401   1.386       .  A
C1394      C1408   1.412       .  A
C1394      C1402   1.386       .  A
C1395      C1403   1.387       .  A
C1395      C1724   1.413   1_554  A
C1396      C1404   1.387       .  A
C1396      C1407   1.413       .  A
C1397      C1398   1.372       .  A
C1397      H1409   1.078       .  S
C1398      H1410   1.082       .  S
C1399      C1400   1.372       .  A
C1399      H1411   1.079       .  S
C1400      H1412   1.082       .  S
C1401      C1402   1.374       .  A
C1401      H1413   1.082       .  S
C1402      H1414   1.082       .  S
C1403      C1404   1.374       .  A
C1403      H1415   1.082       .  S
C1404      H1416   1.082       .  S
C1406      C1713   1.413       .  A
C1407      C1419   1.478       .  S
C1408      C1709   1.418       .  A
C1419      N1420   1.358       .  A
C1419      N1424   1.356       .  A
N1420      C1421   1.360       .  A
C1421      N1422   1.360       .  A
N1422      C1423   1.358   1_655  A
C1423      C1459   1.478   1_455  S
C1423      N1424   1.356   1_455  A
C1425      C1579   1.480       .  S
C1425      N1426   1.357       .  A
C1425      N1430   1.357       .  A
N1426      C1427   1.360       .  A
C1427      N1428   1.360       .  A
N1428      C1429   1.358       .  A
C1429      C1457   1.481       .  S
C1429      N1430   1.357       .  A
C1431      C1512   1.480       .  S
C1431      N1432   1.357       .  A
C1431      N1436   1.358       .  A
N1432      C1433   1.357       .  A
C1433      C1460   1.480       .  S
C1433      N1434   1.357       .  A
N1434      C1435   1.360       .  A
C1435      N1436   1.360       .  A
N1437      C1442   1.355       .  A
N1437      C1441   1.355       .  A
N1437      H1469   1.037       .  S
N1438      C1445   1.351       .  A
N1438      C1446   1.351       .  A
N1439      C1444   1.354       .  A
N1439      C1443   1.354       .  A
N1439      H1470   1.036       .  S
N1440      C1447   1.351       .  A
N1440      C1448   1.351       .  A
C1441      C1449   1.386       .  A
C1442      C1458   1.417       .  A
C1442      C1450   1.387       .  A
C1443      C1451   1.386       .  A
C1443      C2096   1.418   1_545  A
C1444      C1459   1.417       .  A
C1444      C1452   1.387       .  A
C1445      C1457   1.412       .  A
C1445      C1453   1.386       .  A
C1446      C1460   1.412       .  A
C1446      C1454   1.386       .  A
C1447      C1455   1.387       .  A
C1447      C2094   1.413   1_545  A
C1448      C1456   1.387       .  A
C1449      C1450   1.372       .  A
C1449      H1461   1.078       .  S
C1450      H1462   1.082       .  S
C1451      C1452   1.372       .  A
C1451      H1463   1.079       .  S
C1452      H1464   1.082       .  S
C1453      C1454   1.374       .  A
C1453      H1465   1.082       .  S
C1454      H1466   1.082       .  S
C1455      C1456   1.374       .  A
C1455      H1467   1.082       .  S
C1456      H1468   1.082       .  S
C1458      C2083   1.413       .  A
C1460      C2079   1.418       .  A
C1471      C1578   1.481       .  S
C1471      N1472   1.357       .  A
C1471      N1476   1.358       .  A
N1472      C1473   1.357       .  A
C1473      C1509   1.480       .  S
C1473      N1474   1.357       .  A
N1474      C1475   1.360       .  A
C1475      N1476   1.360       .  A
C1477      C1577   1.478       .  S
C1477      N1478   1.358       .  A
C1477      N1482   1.355       .  A
N1478      C1479   1.360       .  A
C1479      N1480   1.360       .  A
N1480      C1481   1.358       .  A
C1481      C1544   1.478       .  S
C1481      N1482   1.355       .  A
C1483      C1545   1.478       .  S
C1483      N1484   1.358       .  A
C1483      N1488   1.356       .  A
N1484      C1485   1.360       .  A
C1485      N1486   1.360       .  A
N1486      C1487   1.358       .  A
C1487      C1510   1.478       .  S
C1487      N1488   1.356       .  A
N1489      C1494   1.355       .  A
N1489      C1493   1.355       .  A
N1489      H1521   1.036       .  S
N1490      C1497   1.351       .  A
N1490      C1498   1.351       .  A
N1491      C1496   1.355       .  A
N1491      C1495   1.355       .  A
N1491      H1522   1.037       .  S
N1492      C1499   1.351       .  A
N1492      C1500   1.351       .  A
C1493      C1501   1.386       .  A
C1493      C1509   1.418       .  A
C1494      C1510   1.417       .  A
C1494      C1502   1.387       .  A
C1495      C1503   1.386       .  A
C1495      C2148   1.418   1_545  A
C1496      C1829   1.417   1_554  A
C1496      C1504   1.387       .  A
C1497      C1827   1.412   1_554  A
C1497      C1505   1.386       .  A
C1498      C1512   1.412       .  A
C1498      C1506   1.386       .  A
C1499      C1507   1.387       .  A
C1499      C2146   1.414       .  A
C1500      C1508   1.387       .  A
C1500      C1511   1.413       .  A
C1501      C1502   1.372       .  A
C1501      H1513   1.079       .  S
C1502      H1514   1.082       .  S
C1503      C1504   1.372       .  A
C1503      H1515   1.078       .  S
C1504      H1516   1.082       .  S
C1505      C1506   1.374       .  A
C1505      H1517   1.082       .  S
C1506      H1518   1.082       .  S
C1507      C1508   1.374       .  A
C1507      H1519   1.082       .  S
C1508      H1520   1.082       .  S
C1509      C1815   1.412       .  A
C1510      C2135   1.414       .  A
C1511      C1814   1.417       .  A
C1512      C2131   1.418       .  A
N1523      C1528   1.355       .  A
N1523      C1527   1.355       .  A
N1523      H1555   1.037       .  S
N1524      C1531   1.351       .  A
N1524      C1532   1.351       .  A
N1525      C1530   1.355       .  A
N1525      C1529   1.355       .  A
N1525      H1556   1.036       .  S
N1526      C1533   1.351       .  A
N1526      C1534   1.351       .  A
C1527      C1535   1.386       .  A
C1527      C1543   1.418       .  A
C1528      C1536   1.387       .  A
C1529      C1537   1.386       .  A
C1529      C1546   1.418   1_655  A
C1530      C2181   1.417   1_545  A
C1530      C1538   1.388       .  A
C1531      C2179   1.412       .  A
C1531      C1539   1.386       .  A
C1532      C1540   1.386       .  A
C1533      C1541   1.387       .  A
C1533      C1544   1.413       .  A
C1534      C1542   1.387       .  A
C1534      C1545   1.414       .  A
C1535      C1536   1.372       .  A
C1535      H1547   1.078       .  S
C1536      H1548   1.082       .  S
C1537      C1538   1.372       .  A
C1537      H1549   1.079       .  S
C1538      H1550   1.082       .  S
C1539      C1540   1.374       .  A
C1539      H1551   1.082       .  S
C1540      H1552   1.082       .  S
C1541      C1542   1.374       .  A
C1541      H1553   1.082       .  S
C1542      H1554   1.082       .  S
C1543      C2167   1.412       .  A
C1545      C2166   1.417       .  A
N1557      C1562   1.355       .  A
N1557      C1561   1.355       .  A
N1557      H1589   1.037       .  S
N1558      C1565   1.351       .  A
N1558      C1566   1.351       .  A
N1559      C1564   1.355       .  A
N1559      C1563   1.355       .  A
N1559      H1590   1.036       .  S
N1560      C1567   1.351       .  A
N1560      C1568   1.351       .  A
C1561      C1569   1.387       .  A
C1561      C1577   1.417       .  A
C1562      C1578   1.418       .  A
C1562      C1570   1.386       .  A
C1563      C1571   1.388       .  A
C1563      C1898   1.417   1_554  A
C1564      C1572   1.386       .  A
C1565      C1573   1.387       .  A
C1566      C1580   1.414       .  A
C1566      C1574   1.387       .  A
C1567      C1575   1.386       .  A
C1567      C1896   1.412   1_554  A
C1568      C1576   1.386       .  A
C1568      C1579   1.412       .  A
C1569      C1570   1.371       .  A
C1569      H1581   1.082       .  S
C1570      H1582   1.078       .  S
C1571      C1572   1.372       .  A
C1571      H1583   1.082       .  S
C1572      H1584   1.079       .  S
C1573      C1574   1.374       .  A
C1573      H1585   1.082       .  S
C1574      H1586   1.082       .  S
C1575      C1576   1.374       .  A
C1575      H1587   1.082       .  S
C1576      H1588   1.082       .  S
C1578      C1885   1.412       .  A
C1580      C1881   1.417       .  A
O1591     Ni1599   1.917       .  S
O1591      C1601   1.280       .  A
O1592     Ni1599   1.918       .  S
O1593     Ni1599   1.919       .  S
O1593      C1603   1.280       .  A
O1594     Ni1599   1.918       .  S
O1595     Ni1600   1.918       .  S
O1595      C1604   1.280       .  A
O1596     Ni1600   1.919       .  S
O1597     Ni1600   1.918       .  S
O1597      C1602   1.280   1_556  A
O1598     Ni1600   1.918       .  S
C1602      C1793   1.459       .  S
C1604      C1695   1.460       .  S
O1605     Ni1613   1.919       .  S
O1605      C1615   1.280       .  A
O1606     Ni1613   1.918       .  S
O1606      C1616   1.280       .  A
O1607     Ni1613   1.918       .  S
O1607      C1617   1.280       .  A
O1608     Ni1613   1.918       .  S
O1608      C1618   1.280       .  A
O1609     Ni1614   1.918       .  S
O1609      C2254   1.280       .  A
O1610     Ni1614   1.918       .  S
O1610      C2253   1.280   1_545  A
O1611     Ni1614   1.918       .  S
O1611      C2252   1.280   1_545  A
O1612     Ni1614   1.919       .  S
O1612      C2251   1.280   1_545  A
Ni1613    Ni2250   2.394       .  S
Ni1614    Ni2249   2.394   1_545  S
C1615      O2248   1.280       .  A
C1615      C1803   1.460       .  S
C1616      O2247   1.280       .  A
C1616      C1687   1.460       .  S
C1617      O2246   1.280       .  A
C1617      C1753   1.459       .  S
C1618      O2245   1.280       .  A
C1618      C1647   1.460       .  S
O1619     Ni1627   1.918       .  S
O1619      C1629   1.280       .  A
O1620     Ni1627   1.919       .  S
O1620      C1630   1.280       .  A
O1621     Ni1627   1.918       .  S
O1621      C1631   1.280   1_655  A
O1622     Ni1627   1.918       .  S
O1622      C1632   1.280       .  A
O1623     Ni1628   1.918       .  S
O1624     Ni1628   1.918       .  S
O1625     Ni1628   1.918       .  S
O1626     Ni1628   1.918       .  S
C1629      C1797   1.460       .  S
C1630      C1739   1.460       .  S
C1631      C1699   1.459       .  S
C1632      C1745   1.459       .  S
C1633      C1673   1.480       .  S
C1633      N1634   1.358       .  A
C1633      N1638   1.357       .  A
N1634      C1635   1.360       .  A
C1635      N1636   1.360       .  A
N1636      C1637   1.357       .  A
C1637      C1726   1.480       .  S
C1637      N1638   1.357       .  A
C1639      C1898   1.478       .  S
C1639      N1640   1.356       .  A
C1639      N1644   1.358       .  A
N1640      C1641   1.356       .  A
C1641      C1671   1.478       .  S
C1641      N1642   1.358       .  A
N1642      C1643   1.360       .  A
C1643      N1644   1.360       .  A
C1645      C1861   1.481       .  S
C1645      N1646   1.358       .  A
C1645      N1650   1.357       .  A
N1646      C1647   1.360       .  A
C1647      N1648   1.360       .  A
N1648      C1649   1.358       .  A
C1649      C1672   1.481       .  S
C1649      N1650   1.357       .  A
N1651      C1656   1.355       .  A
N1651      C1655   1.355       .  A
N1651      H1683   1.036       .  S
N1652      C1659   1.351       .  A
N1652      C1660   1.351       .  A
N1653      C1658   1.355       .  A
N1653      C1657   1.355       .  A
N1653      H1684   1.037       .  S
N1654      C1661   1.351       .  A
N1654      C1662   1.351       .  A
C1655      C1663   1.387       .  A
C1655      C1671   1.417       .  A
C1656      C1672   1.418       .  A
C1656      C1664   1.386       .  A
C1657      C1665   1.387       .  A
C1657      C2310   1.417       .  A
C1658      C1666   1.386       .  A
C1659      C1667   1.387       .  A
C1660      C1674   1.413       .  A
C1660      C1668   1.387       .  A
C1661      C1669   1.386       .  A
C1661      C2308   1.412       .  A
C1662      C1670   1.386       .  A
C1662      C1673   1.412       .  A
C1663      C1664   1.372       .  A
C1663      H1675   1.082       .  S
C1664      H1676   1.079       .  S
C1665      C1666   1.372       .  A
C1665      H1677   1.082       .  S
C1666      H1678   1.078       .  S
C1667      C1668   1.374       .  A
C1667      H1679   1.082       .  S
C1668      H1680   1.082       .  S
C1669      C1670   1.374       .  A
C1669      H1681   1.082       .  S
C1670      H1682   1.082       .  S
C1672      C2297   1.412       .  A
C1674      C1685   1.478       .  S
C1674      C2293   1.417       .  A
C1685      N1686   1.358       .  A
C1685      N1690   1.355       .  A
N1686      C1687   1.360       .  A
C1687      N1688   1.360       .  A
N1688      C1689   1.358       .  A
C1689      C1776   1.478       .  S
C1689      N1690   1.355       .  A
C1691      C1829   1.478       .  S
C1691      N1692   1.355       .  A
C1691      N1696   1.358       .  A
N1692      C1693   1.355       .  A
C1693      C1724   1.478       .  S
C1693      N1694   1.358       .  A
N1694      C1695   1.360       .  A
C1695      N1696   1.360       .  A
C1697      C1864   1.480       .  S
C1697      N1698   1.357       .  A
C1697      N1702   1.357       .  A
N1698      C1699   1.360       .  A
C1699      N1700   1.360       .  A
N1700      C1701   1.358       .  A
C1701      C1723   1.481   1_455  S
C1701      N1702   1.357       .  A
N1703      C1708   1.355       .  A
N1703      C1707   1.355       .  A
N1703      H1735   1.037       .  S
N1704      C1711   1.351       .  A
N1704      C1712   1.351       .  A
N1705      C1710   1.355       .  A
N1705      C1709   1.355       .  A
N1705      H1736   1.036       .  S
N1706      C1713   1.351       .  A
N1706      C1714   1.351       .  A
C1707      C1715   1.386       .  A
C1707      C1723   1.418       .  A
C1708      C1724   1.417       .  A
C1708      C1716   1.387       .  A
C1709      C1717   1.386       .  A
C1710      C1718   1.388       .  A
C1711      C1719   1.386       .  A
C1712      C1726   1.412       .  A
C1712      C1720   1.386       .  A
C1713      C1721   1.387       .  A
C1714      C1722   1.387       .  A
C1714      C1725   1.413       .  A
C1715      C1716   1.372       .  A
C1715      H1727   1.078       .  S
C1716      H1728   1.082       .  S
C1717      C1718   1.372       .  A
C1717      H1729   1.079       .  S
C1718      H1730   1.082       .  S
C1719      C1720   1.374       .  A
C1719      H1731   1.082       .  S
C1720      H1732   1.082       .  S
C1721      C1722   1.374       .  A
C1721      H1733   1.082       .  S
C1722      H1734   1.082       .  S
C1725      C1737   1.478       .  S
C1737      N1738   1.358       .  A
C1737      N1742   1.356       .  A
N1738      C1739   1.360       .  A
C1739      N1740   1.360       .  A
N1740      C1741   1.358   1_655  A
C1741      C1777   1.478   1_455  S
C1741      N1742   1.356   1_455  A
C1743      C1897   1.480       .  S
C1743      N1744   1.357       .  A
C1743      N1748   1.357       .  A
N1744      C1745   1.360       .  A
C1745      N1746   1.360       .  A
N1746      C1747   1.358       .  A
C1747      C1775   1.481       .  S
C1747      N1748   1.357       .  A
C1749      C1830   1.480       .  S
C1749      N1750   1.357       .  A
C1749      N1754   1.358       .  A
N1750      C1751   1.357       .  A
C1751      C1778   1.480       .  S
C1751      N1752   1.357       .  A
N1752      C1753   1.360       .  A
C1753      N1754   1.360       .  A
N1755      C1760   1.355       .  A
N1755      C1759   1.355       .  A
N1755      H1787   1.037       .  S
N1756      C1763   1.351       .  A
N1756      C1764   1.351       .  A
N1757      C1762   1.354       .  A
N1757      C1761   1.354       .  A
N1757      H1788   1.036       .  S
N1758      C1765   1.351       .  A
N1758      C1766   1.351       .  A
C1759      C1767   1.386       .  A
C1760      C1776   1.417       .  A
C1760      C1768   1.387       .  A
C1761      C1769   1.386       .  A
C1761      C2414   1.418   1_545  A
C1762      C1777   1.417       .  A
C1762      C1770   1.387       .  A
C1763      C1775   1.412       .  A
C1763      C1771   1.386       .  A
C1764      C1778   1.412       .  A
C1764      C1772   1.386       .  A
C1765      C1773   1.387       .  A
C1765      C2412   1.413   1_545  A
C1766      C1774   1.387       .  A
C1767      C1768   1.372       .  A
C1767      H1779   1.078       .  S
C1768      H1780   1.082       .  S
C1769      C1770   1.372       .  A
C1769      H1781   1.079       .  S
C1770      H1782   1.082       .  S
C1771      C1772   1.374       .  A
C1771      H1783   1.082       .  S
C1772      H1784   1.082       .  S
C1773      C1774   1.374       .  A
C1773      H1785   1.082       .  S
C1774      H1786   1.082       .  S
C1776      C2401   1.413       .  A
C1778      C2397   1.418       .  A
C1789      C1896   1.481   1_554  S
C1789      N1790   1.357       .  A
C1789      N1794   1.358       .  A
N1790      C1791   1.357       .  A
C1791      C1827   1.480   1_554  S
C1791      N1792   1.357       .  A
N1792      C1793   1.360       .  A
C1793      N1794   1.360       .  A
C1795      C1895   1.478       .  S
C1795      N1796   1.358       .  A
C1795      N1800   1.355       .  A
N1796      C1797   1.360       .  A
C1797      N1798   1.360       .  A
N1798      C1799   1.358       .  A
C1799      C1862   1.478       .  S
C1799      N1800   1.355       .  A
C1801      C1863   1.478       .  S
C1801      N1802   1.358       .  A
C1801      N1806   1.356       .  A
N1802      C1803   1.360       .  A
C1803      N1804   1.360       .  A
N1804      C1805   1.358       .  A
C1805      C1828   1.478       .  S
C1805      N1806   1.356       .  A
N1807      C1812   1.355       .  A
N1807      C1811   1.355       .  A
N1807      H1839   1.036       .  S
N1808      C1815   1.351       .  A
N1808      C1816   1.351       .  A
N1809      C1814   1.355       .  A
N1809      C1813   1.355       .  A
N1809      H1840   1.037       .  S
N1810      C1817   1.351       .  A
N1810      C1818   1.351       .  A
C1811      C1819   1.386       .  A
C1811      C1827   1.418       .  A
C1812      C1828   1.417       .  A
C1812      C1820   1.387       .  A
C1813      C1821   1.386       .  A
C1813      C2466   1.418   1_545  A
C1814      C1822   1.387       .  A
C1815      C1823   1.386       .  A
C1816      C1830   1.412       .  A
C1816      C1824   1.386       .  A
C1817      C1825   1.387       .  A
C1817      C2464   1.414       .  A
C1818      C1826   1.387       .  A
C1818      C1829   1.413       .  A
C1819      C1820   1.372       .  A
C1819      H1831   1.079       .  S
C1820      H1832   1.082       .  S
C1821      C1822   1.372       .  A
C1821      H1833   1.078       .  S
C1822      H1834   1.082       .  S
C1823      C1824   1.374       .  A
C1823      H1835   1.082       .  S
C1824      H1836   1.082       .  S
C1825      C1826   1.374       .  A
C1825      H1837   1.082       .  S
C1826      H1838   1.082       .  S
C1828      C2453   1.414       .  A
C1830      C2449   1.418       .  A
N1841      C1846   1.355       .  A
N1841      C1845   1.355       .  A
N1841      H1873   1.037       .  S
N1842      C1849   1.351       .  A
N1842      C1850   1.351       .  A
N1843      C1848   1.355       .  A
N1843      C1847   1.355       .  A
N1843      H1874   1.036       .  S
N1844      C1851   1.351       .  A
N1844      C1852   1.351       .  A
C1845      C1853   1.386       .  A
C1845      C1861   1.418       .  A
C1846      C1854   1.387       .  A
C1847      C1855   1.386       .  A
C1847      C1864   1.418   1_655  A
C1848      C2499   1.417   1_545  A
C1848      C1856   1.388       .  A
C1849      C2497   1.412       .  A
C1849      C1857   1.386       .  A
C1850      C1858   1.386       .  A
C1851      C1859   1.387       .  A
C1851      C1862   1.413       .  A
C1852      C1860   1.387       .  A
C1852      C1863   1.414       .  A
C1853      C1854   1.372       .  A
C1853      H1865   1.078       .  S
C1854      H1866   1.082       .  S
C1855      C1856   1.372       .  A
C1855      H1867   1.079       .  S
C1856      H1868   1.082       .  S
C1857      C1858   1.374       .  A
C1857      H1869   1.082       .  S
C1858      H1870   1.082       .  S
C1859      C1860   1.374       .  A
C1859      H1871   1.082       .  S
C1860      H1872   1.082       .  S
C1861      C2485   1.412       .  A
C1863      C2484   1.417       .  A
N1875      C1880   1.355       .  A
N1875      C1879   1.355       .  A
N1875      H1907   1.037       .  S
N1876      C1883   1.351       .  A
N1876      C1884   1.351       .  A
N1877      C1882   1.355       .  A
N1877      C1881   1.355       .  A
N1877      H1908   1.036       .  S
N1878      C1885   1.351       .  A
N1878      C1886   1.351       .  A
C1879      C1887   1.387       .  A
C1879      C1895   1.417       .  A
C1880      C1896   1.418       .  A
C1880      C1888   1.386       .  A
C1881      C1889   1.388       .  A
C1882      C1890   1.386       .  A
C1883      C1891   1.387       .  A
C1884      C1898   1.414       .  A
C1884      C1892   1.387       .  A
C1885      C1893   1.386       .  A
C1886      C1894   1.386       .  A
C1886      C1897   1.412       .  A
C1887      C1888   1.371       .  A
C1887      H1899   1.082       .  S
C1888      H1900   1.078       .  S
C1889      C1890   1.372       .  A
C1889      H1901   1.082       .  S
C1890      H1902   1.079       .  S
C1891      C1892   1.374       .  A
C1891      H1903   1.082       .  S
C1892      H1904   1.082       .  S
C1893      C1894   1.374       .  A
C1893      H1905   1.082       .  S
C1894      H1906   1.082       .  S
O1909     Ni1917   1.918       .  S
O1909      C1919   1.280   1_554  A
O1910     Ni1917   1.918       .  S
O1910      C2238   1.280       .  A
O1911     Ni1917   1.919       .  S
O1911      C1921   1.280   1_554  A
O1912     Ni1917   1.918       .  S
O1912      C2240   1.280   1_554  A
O1913     Ni1918   1.918       .  S
O1913      C1922   1.280       .  A
O1914     Ni1918   1.919       .  S
O1914      C2239   1.280       .  A
O1915     Ni1918   1.918       .  S
O1915      C1920   1.280       .  A
O1916     Ni1918   1.918       .  S
O1916      C2237   1.280       .  A
Ni1917    Ni2236   2.394   1_554  S
Ni1918    Ni2235   2.394       .  S
C1919      O2234   1.280       .  A
C1919      C2271   1.459       .  S
C1920      O2228   1.280       .  A
C1920      C2111   1.459       .  S
C1921      O2232   1.280       .  A
C1921      C2279   1.460       .  S
C1922      O2230   1.280       .  A
C1922      C2013   1.460       .  S
O1923     Ni1931   1.919       .  S
O1923      C1933   1.280       .  A
O1924     Ni1931   1.919       .  S
O1924      C1934   1.280       .  A
O1925     Ni1931   1.918       .  S
O1925      C1935   1.280       .  A
O1926     Ni1931   1.918       .  S
O1926      C1936   1.280   1_565  A
O1927     Ni1932   1.918       .  S
O1928     Ni1932   1.918       .  S
O1929     Ni1932   1.918       .  S
O1930     Ni1932   1.919       .  S
C1933      C2121   1.460       .  S
C1934      C2005   1.460       .  S
C1935      C2071   1.459       .  S
C1936      C1965   1.459       .  S
O1937     Ni1945   1.918       .  S
O1937      C1947   1.280       .  A
O1938     Ni1945   1.919       .  S
O1938      C1948   1.280       .  A
O1939     Ni1945   1.918       .  S
O1939      C1949   1.280   1_655  A
O1940     Ni1945   1.918       .  S
O1940      C1950   1.280       .  A
O1941     Ni1946   1.918       .  S
O1942     Ni1946   1.918       .  S
O1943     Ni1946   1.919       .  S
O1944     Ni1946   1.918       .  S
C1947      C2115   1.460       .  S
C1948      C2057   1.460       .  S
C1949      C2017   1.459       .  S
C1950      C2063   1.459       .  S
C1951      C1991   1.480       .  S
C1951      N1952   1.358       .  A
C1951      N1956   1.357       .  A
N1952      C1953   1.360       .  A
C1953      C2237   1.459       .  S
C1953      N1954   1.360       .  A
N1954      C1955   1.357       .  A
C1955      C2044   1.480       .  S
C1955      N1956   1.357       .  A
C1957      C2216   1.478       .  S
C1957      N1958   1.356       .  A
C1957      N1962   1.358       .  A
N1958      C1959   1.356       .  A
C1959      C1989   1.479       .  S
C1959      N1960   1.358       .  A
N1960      C1961   1.360       .  A
C1961      C2239   1.460       .  S
C1961      N1962   1.360       .  A
C1963      C2179   1.481       .  S
C1963      N1964   1.358       .  A
C1963      N1968   1.357       .  A
N1964      C1965   1.360       .  A
C1965      N1966   1.360       .  A
N1966      C1967   1.358       .  A
C1967      C1990   1.480       .  S
C1967      N1968   1.357       .  A
N1969      C1974   1.355       .  A
N1969      C1973   1.355       .  A
N1969      H2001   1.036       .  S
N1970      C1977   1.351       .  A
N1970      C1978   1.351       .  A
N1971      C1976   1.355       .  A
N1971      C1975   1.355       .  A
N1971      H2002   1.037       .  S
N1972      C1979   1.351       .  A
N1972      C1980   1.351       .  A
C1973      C1981   1.387       .  A
C1973      C1989   1.417       .  A
C1974      C1990   1.418   1_565  A
C1974      C1982   1.386       .  A
C1975      C1983   1.387       .  A
C1976      C2309   1.418   1_554  A
C1976      C1984   1.386       .  A
C1977      C2307   1.414   1_554  A
C1977      C1985   1.387       .  A
C1978      C1992   1.413   1_565  A
C1978      C1986   1.387       .  A
C1979      C1987   1.386       .  A
C1980      C1988   1.386       .  A
C1980      C1991   1.412       .  A
C1981      C1982   1.372       .  A
C1981      H1993   1.082       .  S
C1982      H1994   1.079       .  S
C1983      C1984   1.371       .  A
C1983      H1995   1.082       .  S
C1984      H1996   1.078       .  S
C1985      C1986   1.374       .  A
C1985      H1997   1.082       .  S
C1986      H1998   1.082       .  S
C1987      C1988   1.374       .  A
C1987      H1999   1.082       .  S
C1988      H2000   1.082       .  S
C1989      C2295   1.414       .  A
C1991      C2294   1.418       .  A
C1992      C2003   1.478   1_545  S
C2003      N2004   1.358       .  A
C2003      N2008   1.355   1_565  A
N2004      C2005   1.360       .  A
C2005      N2006   1.360   1_565  A
N2006      C2007   1.358       .  A
C2007      C2094   1.478   1_545  S
C2007      N2008   1.355       .  A
C2009      C2147   1.478       .  S
C2009      N2010   1.355       .  A
C2009      N2014   1.358       .  A
N2010      C2011   1.355       .  A
C2011      C2042   1.478       .  S
C2011      N2012   1.358       .  A
N2012      C2013   1.360       .  A
C2013      N2014   1.360       .  A
C2015      C2182   1.480       .  S
C2015      N2016   1.357       .  A
C2015      N2020   1.357       .  A
N2016      C2017   1.360       .  A
C2017      N2018   1.360       .  A
N2018      C2019   1.358       .  A
C2019      C2041   1.481   1_455  S
C2019      N2020   1.357       .  A
N2021      C2026   1.355       .  A
N2021      C2025   1.355       .  A
N2021      H2053   1.037       .  S
N2022      C2029   1.351       .  A
N2022      C2030   1.351       .  A
N2023      C2028   1.354       .  A
N2023      C2027   1.355       .  A
N2023      H2054   1.036       .  S
N2024      C2031   1.351       .  A
N2024      C2032   1.351       .  A
C2025      C2033   1.386       .  A
C2025      C2041   1.418       .  A
C2026      C2042   1.417       .  A
C2026      C2034   1.387       .  A
C2027      C2035   1.386       .  A
C2027      C2362   1.418   1_554  A
C2028      C2036   1.387       .  A
C2029      C2037   1.386       .  A
C2030      C2044   1.412       .  A
C2030      C2038   1.386       .  A
C2031      C2039   1.387       .  A
C2031      C2360   1.413   1_554  A
C2032      C2040   1.387       .  A
C2032      C2043   1.413       .  A
C2033      C2034   1.372       .  A
C2033      H2045   1.078       .  S
C2034      H2046   1.082       .  S
C2035      C2036   1.372       .  A
C2035      H2047   1.079       .  S
C2036      H2048   1.082       .  S
C2037      C2038   1.374       .  A
C2037      H2049   1.082       .  S
C2038      H2050   1.082       .  S
C2039      C2040   1.374       .  A
C2039      H2051   1.082       .  S
C2040      H2052   1.082       .  S
C2042      C2349   1.413       .  A
C2043      C2055   1.478       .  S
C2044      C2345   1.418       .  A
C2055      N2056   1.358       .  A
C2055      N2060   1.356       .  A
N2056      C2057   1.360       .  A
C2057      N2058   1.360       .  A
N2058      C2059   1.358   1_655  A
C2059      C2095   1.478   1_455  S
C2059      N2060   1.356   1_455  A
C2061      C2215   1.480       .  S
C2061      N2062   1.357       .  A
C2061      N2066   1.357       .  A
N2062      C2063   1.360       .  A
C2063      N2064   1.360       .  A
N2064      C2065   1.358       .  A
C2065      C2093   1.481       .  S
C2065      N2066   1.357       .  A
C2067      C2148   1.480       .  S
C2067      N2068   1.357       .  A
C2067      N2072   1.358       .  A
N2068      C2069   1.357       .  A
C2069      C2096   1.480       .  S
C2069      N2070   1.357       .  A
N2070      C2071   1.360       .  A
C2071      N2072   1.360       .  A
N2073      C2078   1.355       .  A
N2073      C2077   1.355       .  A
N2073      H2105   1.037       .  S
N2074      C2081   1.351       .  A
N2074      C2082   1.351       .  A
N2075      C2080   1.354       .  A
N2075      C2079   1.355       .  A
N2075      H2106   1.036       .  S
N2076      C2083   1.351       .  A
N2076      C2084   1.351       .  A
C2077      C2085   1.386       .  A
C2078      C2094   1.417       .  A
C2078      C2086   1.387       .  A
C2079      C2087   1.386       .  A
C2080      C2095   1.417       .  A
C2080      C2088   1.388       .  A
C2081      C2093   1.412       .  A
C2081      C2089   1.386       .  A
C2082      C2096   1.412       .  A
C2082      C2090   1.386       .  A
C2083      C2091   1.387       .  A
C2084      C2092   1.387       .  A
C2085      C2086   1.372       .  A
C2085      H2097   1.078       .  S
C2086      H2098   1.082       .  S
C2087      C2088   1.372       .  A
C2087      H2099   1.079       .  S
C2088      H2100   1.082       .  S
C2089      C2090   1.374       .  A
C2089      H2101   1.082       .  S
C2090      H2102   1.082       .  S
C2091      C2092   1.374       .  A
C2091      H2103   1.082       .  S
C2092      H2104   1.082       .  S
C2107      C2214   1.481       .  S
C2107      N2108   1.357       .  A
C2107      N2112   1.358       .  A
N2108      C2109   1.357       .  A
C2109      C2145   1.481       .  S
C2109      N2110   1.358       .  A
N2110      C2111   1.360       .  A
C2111      N2112   1.360       .  A
C2113      C2213   1.478       .  S
C2113      N2114   1.358       .  A
C2113      N2118   1.355       .  A
N2114      C2115   1.360       .  A
C2115      N2116   1.360       .  A
N2116      C2117   1.358       .  A
C2117      C2180   1.478       .  S
C2117      N2118   1.355       .  A
C2119      C2181   1.478       .  S
C2119      N2120   1.358       .  A
C2119      N2124   1.356       .  A
N2120      C2121   1.360       .  A
C2121      N2122   1.360   1_565  A
N2122      C2123   1.358       .  A
C2123      C2146   1.478       .  S
C2123      N2124   1.356   1_545  A
N2125      C2130   1.355       .  A
N2125      C2129   1.355       .  A
N2125      H2157   1.036       .  S
N2126      C2133   1.351       .  A
N2126      C2134   1.351       .  A
N2127      C2132   1.355       .  A
N2127      C2131   1.355       .  A
N2127      H2158   1.037       .  S
N2128      C2135   1.351       .  A
N2128      C2136   1.351       .  A
C2129      C2137   1.386       .  A
C2129      C2145   1.418       .  A
C2130      C2146   1.417   1_565  A
C2130      C2138   1.387       .  A
C2131      C2139   1.386       .  A
C2132      C2465   1.417   1_554  A
C2132      C2140   1.387       .  A
C2133      C2463   1.412   1_554  A
C2133      C2141   1.386       .  A
C2134      C2148   1.412       .  A
C2134      C2142   1.386       .  A
C2135      C2143   1.387       .  A
C2136      C2144   1.387       .  A
C2136      C2147   1.413       .  A
C2137      C2138   1.372       .  A
C2137      H2149   1.079       .  S
C2138      H2150   1.082       .  S
C2139      C2140   1.372       .  A
C2139      H2151   1.078       .  S
C2140      H2152   1.082       .  S
C2141      C2142   1.374       .  A
C2141      H2153   1.082       .  S
C2142      H2154   1.082       .  S
C2143      C2144   1.374       .  A
C2143      H2155   1.082       .  S
C2144      H2156   1.082       .  S
C2145      C2451   1.412       .  A
C2147      C2450   1.417       .  A
N2159      C2164   1.355       .  A
N2159      C2163   1.355       .  A
N2159      H2191   1.037       .  S
N2160      C2167   1.351       .  A
N2160      C2168   1.351       .  A
N2161      C2166   1.355       .  A
N2161      C2165   1.355       .  A
N2161      H2192   1.036       .  S
N2162      C2169   1.351       .  A
N2162      C2170   1.351       .  A
C2163      C2171   1.386       .  A
C2163      C2179   1.418   1_565  A
C2164      C2172   1.387       .  A
C2165      C2173   1.386       .  A
C2165      C2182   1.418   1_655  A
C2166      C2174   1.388       .  A
C2167      C2175   1.386       .  A
C2168      C2176   1.386       .  A
C2169      C2177   1.387       .  A
C2169      C2180   1.413       .  A
C2170      C2178   1.387       .  A
C2170      C2181   1.414       .  A
C2171      C2172   1.371       .  A
C2171      H2183   1.078       .  S
C2172      H2184   1.082       .  S
C2173      C2174   1.372       .  A
C2173      H2185   1.079       .  S
C2174      H2186   1.082       .  S
C2175      C2176   1.374       .  A
C2175      H2187   1.082       .  S
C2176      H2188   1.082       .  S
C2177      C2178   1.374       .  A
C2177      H2189   1.082       .  S
C2178      H2190   1.082       .  S
N2193      C2198   1.355       .  A
N2193      C2197   1.355       .  A
N2193      H2225   1.037       .  S
N2194      C2201   1.351       .  A
N2194      C2202   1.351       .  A
N2195      C2200   1.355       .  A
N2195      C2199   1.355       .  A
N2195      H2226   1.036       .  S
N2196      C2203   1.351       .  A
N2196      C2204   1.351       .  A
C2197      C2205   1.387       .  A
C2197      C2213   1.417       .  A
C2198      C2214   1.418       .  A
C2198      C2206   1.386       .  A
C2199      C2207   1.388       .  A
C2199      C2534   1.417   1_554  A
C2200      C2208   1.386       .  A
C2201      C2209   1.387       .  A
C2202      C2216   1.414       .  A
C2202      C2210   1.387       .  A
C2203      C2211   1.386       .  A
C2203      C2532   1.412   1_554  A
C2204      C2212   1.386       .  A
C2204      C2215   1.412       .  A
C2205      C2206   1.372       .  A
C2205      H2217   1.082       .  S
C2206      H2218   1.078       .  S
C2207      C2208   1.372       .  A
C2207      H2219   1.082       .  S
C2208      H2220   1.079       .  S
C2209      C2210   1.374       .  A
C2209      H2221   1.082       .  S
C2210      H2222   1.082       .  S
C2211      C2212   1.374       .  A
C2211      H2223   1.082       .  S
C2212      H2224   1.082       .  S
C2214      C2521   1.412       .  A
C2216      C2517   1.417       .  A
O2227     Ni2235   1.918       .  S
O2227      C2237   1.280       .  A
O2228     Ni2235   1.918       .  S
O2229     Ni2235   1.919       .  S
O2229      C2239   1.280       .  A
O2230     Ni2235   1.918       .  S
O2231     Ni2236   1.918       .  S
O2231      C2240   1.280       .  A
O2232     Ni2236   1.919       .  S
O2233     Ni2236   1.918       .  S
O2233      C2238   1.280   1_556  A
O2234     Ni2236   1.918       .  S
C2238      C2429   1.459       .  S
C2240      C2331   1.460       .  S
O2241     Ni2249   1.919       .  S
O2241      C2251   1.280       .  A
O2242     Ni2249   1.919       .  S
O2242      C2252   1.280       .  A
O2243     Ni2249   1.918       .  S
O2243      C2253   1.280       .  A
O2244     Ni2249   1.918       .  S
O2244      C2254   1.280   1_565  A
O2245     Ni2250   1.918       .  S
O2246     Ni2250   1.918       .  S
O2247     Ni2250   1.918       .  S
O2248     Ni2250   1.919       .  S
C2251      C2439   1.460       .  S
C2252      C2323   1.460       .  S
C2253      C2389   1.459       .  S
C2254      C2283   1.459       .  S
O2255     Ni2263   1.918       .  S
O2255      C2265   1.280       .  A
O2256     Ni2263   1.919       .  S
O2256      C2266   1.280       .  A
O2257     Ni2263   1.918       .  S
O2257      C2267   1.280   1_655  A
O2258     Ni2263   1.918       .  S
O2258      C2268   1.280       .  A
O2259     Ni2264   1.918       .  S
O2260     Ni2264   1.918       .  S
O2261     Ni2264   1.919       .  S
O2262     Ni2264   1.918       .  S
C2265      C2433   1.460       .  S
C2266      C2375   1.460       .  S
C2267      C2335   1.459       .  S
C2268      C2381   1.459       .  S
C2269      C2309   1.480       .  S
C2269      N2270   1.358       .  A
C2269      N2274   1.357       .  A
N2270      C2271   1.360       .  A
C2271      N2272   1.360       .  A
N2272      C2273   1.357       .  A
C2273      C2362   1.480       .  S
C2273      N2274   1.357       .  A
C2275      C2534   1.478       .  S
C2275      N2276   1.356       .  A
C2275      N2280   1.358       .  A
N2276      C2277   1.356   1_556  A
C2277      C2307   1.479   1_554  S
C2277      N2278   1.358       .  A
N2278      C2279   1.360   1_554  A
C2279      N2280   1.360       .  A
C2281      C2497   1.481       .  S
C2281      N2282   1.358       .  A
C2281      N2286   1.357       .  A
N2282      C2283   1.360       .  A
C2283      N2284   1.360       .  A
N2284      C2285   1.358       .  A
C2285      C2308   1.480       .  S
C2285      N2286   1.357       .  A
N2287      C2292   1.355       .  A
N2287      C2291   1.355       .  A
N2287      H2319   1.036       .  S
N2288      C2295   1.351       .  A
N2288      C2296   1.351       .  A
N2289      C2294   1.355       .  A
N2289      C2293   1.355       .  A
N2289      H2320   1.037       .  S
N2290      C2297   1.351       .  A
N2290      C2298   1.351       .  A
C2291      C2299   1.387       .  A
C2291      C2307   1.417       .  A
C2292      C2308   1.418   1_565  A
C2292      C2300   1.386       .  A
C2293      C2301   1.387       .  A
C2294      C2302   1.386       .  A
C2295      C2303   1.387       .  A
C2296      C2310   1.413   1_565  A
C2296      C2304   1.387       .  A
C2297      C2305   1.386       .  A
C2298      C2306   1.386       .  A
C2298      C2309   1.412       .  A
C2299      C2300   1.372       .  A
C2299      H2311   1.082       .  S
C2300      H2312   1.079       .  S
C2301      C2302   1.371       .  A
C2301      H2313   1.082       .  S
C2302      H2314   1.078       .  S
C2303      C2304   1.374       .  A
C2303      H2315   1.082       .  S
C2304      H2316   1.082       .  S
C2305      C2306   1.374       .  A
C2305      H2317   1.082       .  S
C2306      H2318   1.082       .  S
C2310      C2321   1.478   1_545  S
C2321      N2322   1.358       .  A
C2321      N2326   1.355   1_565  A
N2322      C2323   1.360       .  A
C2323      N2324   1.360   1_565  A
N2324      C2325   1.358       .  A
C2325      C2412   1.478   1_545  S
C2325      N2326   1.355       .  A
C2327      C2465   1.478       .  S
C2327      N2328   1.355       .  A
C2327      N2332   1.358       .  A
N2328      C2329   1.355       .  A
C2329      C2360   1.478       .  S
C2329      N2330   1.358       .  A
N2330      C2331   1.360       .  A
C2331      N2332   1.360       .  A
C2333      C2500   1.480       .  S
C2333      N2334   1.357       .  A
C2333      N2338   1.357       .  A
N2334      C2335   1.360       .  A
C2335      N2336   1.360       .  A
N2336      C2337   1.358       .  A
C2337      C2359   1.481   1_455  S
C2337      N2338   1.357       .  A
N2339      C2344   1.355       .  A
N2339      C2343   1.355       .  A
N2339      H2371   1.037       .  S
N2340      C2347   1.351       .  A
N2340      C2348   1.351       .  A
N2341      C2346   1.354       .  A
N2341      C2345   1.355       .  A
N2341      H2372   1.036       .  S
N2342      C2349   1.351       .  A
N2342      C2350   1.351       .  A
C2343      C2351   1.386       .  A
C2343      C2359   1.418       .  A
C2344      C2360   1.417       .  A
C2344      C2352   1.387       .  A
C2345      C2353   1.386       .  A
C2346      C2354   1.387       .  A
C2347      C2355   1.386       .  A
C2348      C2362   1.412       .  A
C2348      C2356   1.386       .  A
C2349      C2357   1.387       .  A
C2350      C2358   1.387       .  A
C2350      C2361   1.413       .  A
C2351      C2352   1.372       .  A
C2351      H2363   1.078       .  S
C2352      H2364   1.082       .  S
C2353      C2354   1.372       .  A
C2353      H2365   1.079       .  S
C2354      H2366   1.082       .  S
C2355      C2356   1.374       .  A
C2355      H2367   1.082       .  S
C2356      H2368   1.082       .  S
C2357      C2358   1.374       .  A
C2357      H2369   1.082       .  S
C2358      H2370   1.082       .  S
C2361      C2373   1.478       .  S
C2373      N2374   1.358       .  A
C2373      N2378   1.356       .  A
N2374      C2375   1.360       .  A
C2375      N2376   1.360       .  A
N2376      C2377   1.358   1_655  A
C2377      C2413   1.478   1_455  S
C2377      N2378   1.356   1_455  A
C2379      C2533   1.480       .  S
C2379      N2380   1.357       .  A
C2379      N2384   1.357       .  A
N2380      C2381   1.360       .  A
C2381      N2382   1.360       .  A
N2382      C2383   1.358       .  A
C2383      C2411   1.481       .  S
C2383      N2384   1.357       .  A
C2385      C2466   1.480       .  S
C2385      N2386   1.357       .  A
C2385      N2390   1.358       .  A
N2386      C2387   1.357       .  A
C2387      C2414   1.480       .  S
C2387      N2388   1.357       .  A
N2388      C2389   1.360       .  A
C2389      N2390   1.360       .  A
N2391      C2396   1.355       .  A
N2391      C2395   1.355       .  A
N2391      H2423   1.037       .  S
N2392      C2399   1.351       .  A
N2392      C2400   1.351       .  A
N2393      C2398   1.354       .  A
N2393      C2397   1.355       .  A
N2393      H2424   1.036       .  S
N2394      C2401   1.351       .  A
N2394      C2402   1.351       .  A
C2395      C2403   1.386       .  A
C2396      C2412   1.417       .  A
C2396      C2404   1.387       .  A
C2397      C2405   1.386       .  A
C2398      C2413   1.417       .  A
C2398      C2406   1.388       .  A
C2399      C2411   1.412       .  A
C2399      C2407   1.386       .  A
C2400      C2414   1.412       .  A
C2400      C2408   1.386       .  A
C2401      C2409   1.387       .  A
C2402      C2410   1.387       .  A
C2403      C2404   1.372       .  A
C2403      H2415   1.078       .  S
C2404      H2416   1.082       .  S
C2405      C2406   1.372       .  A
C2405      H2417   1.079       .  S
C2406      H2418   1.082       .  S
C2407      C2408   1.374       .  A
C2407      H2419   1.082       .  S
C2408      H2420   1.082       .  S
C2409      C2410   1.374       .  A
C2409      H2421   1.082       .  S
C2410      H2422   1.082       .  S
C2425      C2532   1.481   1_554  S
C2425      N2426   1.357       .  A
C2425      N2430   1.358       .  A
N2426      C2427   1.357       .  A
C2427      C2463   1.481   1_554  S
C2427      N2428   1.358       .  A
N2428      C2429   1.360       .  A
C2429      N2430   1.360       .  A
C2431      C2531   1.478       .  S
C2431      N2432   1.358       .  A
C2431      N2436   1.355       .  A
N2432      C2433   1.360       .  A
C2433      N2434   1.360       .  A
N2434      C2435   1.358       .  A
C2435      C2498   1.478       .  S
C2435      N2436   1.355       .  A
C2437      C2499   1.478       .  S
C2437      N2438   1.358       .  A
C2437      N2442   1.356       .  A
N2438      C2439   1.360       .  A
C2439      N2440   1.360   1_565  A
N2440      C2441   1.358       .  A
C2441      C2464   1.478       .  S
C2441      N2442   1.356   1_545  A
N2443      C2448   1.355       .  A
N2443      C2447   1.355       .  A
N2443      H2475   1.036       .  S
N2444      C2451   1.351       .  A
N2444      C2452   1.351       .  A
N2445      C2450   1.355       .  A
N2445      C2449   1.355       .  A
N2445      H2476   1.037       .  S
N2446      C2453   1.351       .  A
N2446      C2454   1.351       .  A
C2447      C2455   1.386       .  A
C2447      C2463   1.418       .  A
C2448      C2464   1.417   1_565  A
C2448      C2456   1.387       .  A
C2449      C2457   1.386       .  A
C2450      C2458   1.387       .  A
C2451      C2459   1.386       .  A
C2452      C2466   1.412       .  A
C2452      C2460   1.386       .  A
C2453      C2461   1.387       .  A
C2454      C2462   1.387       .  A
C2454      C2465   1.413       .  A
C2455      C2456   1.372       .  A
C2455      H2467   1.079       .  S
C2456      H2468   1.082       .  S
C2457      C2458   1.372       .  A
C2457      H2469   1.078       .  S
C2458      H2470   1.082       .  S
C2459      C2460   1.374       .  A
C2459      H2471   1.082       .  S
C2460      H2472   1.082       .  S
C2461      C2462   1.374       .  A
C2461      H2473   1.082       .  S
C2462      H2474   1.082       .  S
N2477      C2482   1.355       .  A
N2477      C2481   1.355       .  A
N2477      H2509   1.037       .  S
N2478      C2485   1.351       .  A
N2478      C2486   1.351       .  A
N2479      C2484   1.355       .  A
N2479      C2483   1.355       .  A
N2479      H2510   1.036       .  S
N2480      C2487   1.351       .  A
N2480      C2488   1.351       .  A
C2481      C2489   1.386       .  A
C2481      C2497   1.418   1_565  A
C2482      C2490   1.387       .  A
C2483      C2491   1.386       .  A
C2483      C2500   1.418   1_655  A
C2484      C2492   1.388       .  A
C2485      C2493   1.386       .  A
C2486      C2494   1.386       .  A
C2487      C2495   1.387       .  A
C2487      C2498   1.413       .  A
C2488      C2496   1.387       .  A
C2488      C2499   1.414       .  A
C2489      C2490   1.371       .  A
C2489      H2501   1.078       .  S
C2490      H2502   1.082       .  S
C2491      C2492   1.372       .  A
C2491      H2503   1.079       .  S
C2492      H2504   1.082       .  S
C2493      C2494   1.374       .  A
C2493      H2505   1.082       .  S
C2494      H2506   1.082       .  S
C2495      C2496   1.374       .  A
C2495      H2507   1.082       .  S
C2496      H2508   1.082       .  S
N2511      C2516   1.355       .  A
N2511      C2515   1.355       .  A
N2511      H2543   1.037       .  S
N2512      C2519   1.351       .  A
N2512      C2520   1.351       .  A
N2513      C2518   1.355       .  A
N2513      C2517   1.355       .  A
N2513      H2544   1.036       .  S
N2514      C2521   1.351       .  A
N2514      C2522   1.351       .  A
C2515      C2523   1.387       .  A
C2515      C2531   1.417       .  A
C2516      C2532   1.418       .  A
C2516      C2524   1.386       .  A
C2517      C2525   1.388       .  A
C2518      C2526   1.386       .  A
C2519      C2527   1.387       .  A
C2520      C2534   1.414       .  A
C2520      C2528   1.387       .  A
C2521      C2529   1.386       .  A
C2522      C2530   1.386       .  A
C2522      C2533   1.412       .  A
C2523      C2524   1.372       .  A
C2523      H2535   1.082       .  S
C2524      H2536   1.078       .  S
C2525      C2526   1.372       .  A
C2525      H2537   1.082       .  S
C2526      H2538   1.079       .  S
C2527      C2528   1.374       .  A
C2527      H2539   1.082       .  S
C2528      H2540   1.082       .  S
C2529      C2530   1.374       .  A
C2529      H2541   1.082       .  S
C2530      H2542   1.082       .  S
