geometry optimzed in LAMMPS
_audit_creation_date              2020-11-30 
_audit_creation_method            'lammps2cif' 
_symmetry_space_group_name_H-M    'P1' 
_symmetry_Int_Tables_number       1 
_symmetry_cell_setting            triclinic 
loop_ 
_symmetry_equiv_pos_as_xyz 
  x,y,z 
_cell_length_a                    46.77841999 
_cell_length_b                    46.3678981559753 
_cell_length_c                    47.90491277810867 
_cell_angle_alpha                 89.28610512267954 
_cell_angle_beta                  90.82488675887802 
_cell_angle_gamma                 122.91329146523441 
loop_ 
_atom_site_label 
_atom_site_type_symbol 
_atom_site_fract_x 
_atom_site_fract_y 
_atom_site_fract_z 
_atom_site_charge 
C1          C  0.12959423  0.34331025  0.13301370     0.80100
N2          N  0.10533796  0.33512943  0.15246959    -0.78200
C3          C  0.07741257  0.33567389  0.14565813     0.82500
N4          N  0.07330613  0.34348257  0.11919798    -0.78200
C5          C  0.09641476  0.35023243  0.09927634     0.82600
N6          N  0.12446191  0.34980883  0.10617386    -0.79900
C7          C  0.11211450  0.30841910  0.41524754     0.80100
N8          N  0.09460008  0.31518829  0.39609841    -0.78200
C9          C  0.06623902  0.31414193  0.40366514     0.82500
N10         N  0.05528029  0.30617020  0.43024710    -0.78200
C11         C  0.07276781  0.30043883  0.44980305     0.82600
N12         N  0.10175162  0.30228973  0.44246192    -0.79900
In13       In  0.04710584  0.32043988  0.02462019     1.36900
C14         C  0.08493023  0.34683217  0.07018113     0.77400
O15         O  0.02473558  0.27686713  0.05564879    -0.61000
O16         O  0.99031486  0.28270265  0.03091843    -0.51900
C17         C  0.04058675  0.36766259  0.99860567     0.70100
O18         O  0.01984187  0.34788181  0.01686714    -0.46800
C19         C  0.06357363  0.30057638  0.47895433     0.74800
O20         O  0.06265585  0.35289528  0.06288636    -0.58600
O21         O  0.03324708  0.28939220  0.48554144    -0.48700
O22         O  0.09146755  0.33164754  0.05213394    -0.55100
C23         C  0.99440903  0.26802259  0.05145034     0.85000
O24         O  0.06657021  0.36595631  0.49612906    -0.57000
O25         O  0.08533571  0.31748184  0.49780486    -0.60300
C26         C  0.90986622  0.20782091  0.08346765     0.80100
N27         N  0.93483012  0.22359301  0.06385946    -0.78200
C28         C  0.96749437  0.24704858  0.07177460     0.82500
N29         N  0.97485695  0.25521929  0.09911050    -0.78200
C30         C  0.95012866  0.24080686  0.11861463     0.82600
N31         N  0.91753430  0.21718262  0.11081325    -0.79900
C32         C  0.90516292  0.21531920  0.29815836     0.80100
N33         N  0.92521816  0.23970904  0.31736485    -0.78200
C34         C  0.95714206  0.26558578  0.31062082     0.82500
N35         N  0.96908753  0.26698376  0.28476300    -0.78200
C36         C  0.94926497  0.24356195  0.26514266     0.82600
N37         N  0.91684974  0.21798143  0.27164079    -0.79900
In38       In  0.99084190  0.29067189  0.19186464     1.36900
C39         C  0.96112980  0.25222294  0.23626046     0.77400
O40         O  0.01868935  0.32979006  0.22415986    -0.61000
O41         O  0.98255437  0.33381115  0.19942529    -0.51900
C42         C  0.04846972  0.32173643  0.16452660     0.70100
O43         O  0.04223314  0.29963359  0.18341282    -0.46800
C44         C  0.95936861  0.25383840  0.14721323     0.74800
O45         O  0.99136433  0.26234866  0.22974408    -0.58600
O46         O  0.95228053  0.27444199  0.15720834    -0.48700
O47         O  0.94451124  0.25701728  0.21782961    -0.55100
C48         C  0.00383766  0.34533187  0.21956853     0.85000
O49         O  0.02615989  0.32887163  0.16106476    -0.57000
O50         O  0.97939213  0.24937641  0.16184006    -0.60300
C51         C  0.01464791  0.42400718  0.46806623     0.80100
N52         N  0.02383332  0.40861412  0.98722363    -0.78200
C53         C  0.03288652  0.38685931  0.97875468     0.82500
N54         N  0.03198572  0.37991776  0.45127798    -0.78200
C55         C  0.02162462  0.39409928  0.43207462     0.82600
N56         N  0.01298264  0.41629954  0.44039518    -0.79900
C57         C  0.00880050  0.42179642  0.24877199     0.80100
N58         N  0.00434646  0.39764818  0.23012956    -0.78200
C59         C  0.00991189  0.37295225  0.23819978     0.82500
N60         N  0.01954976  0.37225746  0.26483930    -0.78200
C61         C  0.02292971  0.39527295  0.28381755     0.82600
N62         N  0.01708963  0.41986035  0.27589559    -0.79900
In63       In  0.01821507  0.35087671  0.35788489     1.36900
C64         C  0.02555057  0.38772193  0.31317063     0.77400
O65         O  0.00971406  0.31338427  0.32587274    -0.61000
O66         O  0.96628890  0.30339209  0.34878122    -0.51900
C67         C  0.04938403  0.32584531  0.38512372     0.70100
O68         O  0.01854117  0.31540165  0.38870855    -0.46800
C69         C  0.01898903  0.38343751  0.40295390     0.74800
O70         O  0.04888544  0.38372371  0.32184008    -0.58600
O71         O  0.99137473  0.35902106  0.39248452    -0.48700
O72         O  0.00105276  0.37771741  0.32973855    -0.55100
C73         C  0.97805839  0.29433630  0.32944498     0.85000
O74         O  0.06465688  0.34879981  0.36645722    -0.57000
O75         O  0.04526525  0.39374460  0.38846213    -0.60300
C76         C  0.89257404  0.64197653  0.32970159     0.80100
N77         N  0.89464009  0.63304585  0.35656505    -0.78200
C78         C  0.91855402  0.62621769  0.36387096     0.82500
N79         N  0.94091288  0.62943171  0.34454675    -0.78200
C80         C  0.94020135  0.63990866  0.31820410     0.82600
N81         N  0.91615004  0.64643391  0.31077676    -0.79900
C82         C  0.88806432  0.64175593  0.04650307     0.80100
N83         N  0.89667999  0.64485948  0.01891670    -0.78200
C84         C  0.92390943  0.64351375  0.01138949     0.82500
N85         N  0.94187530  0.63876958  0.03111923    -0.78200
C86         C  0.93286369  0.63433214  0.05820697     0.82600
N87         N  0.90583902  0.63568955  0.06599763    -0.79900
In88       In  0.96236426  0.63408850  0.43944513     1.36900
C89         C  0.92696505  0.62434576  0.39310041     0.77400
O90         O  0.91741698  0.61707344  0.46730580    -0.61000
O91         O  0.96243670  0.66674190  0.47338735    -0.51900
C92         C  0.97635925  0.59430447  0.46909243     0.70100
O93         O  0.99151999  0.62629847  0.47200294    -0.46800
C94         C  0.02047873  0.67700517  0.41347911     0.74800
O95         O  0.93486700  0.60355944  0.40132502    -0.58600
O96         O  0.00377532  0.64492932  0.41065097    -0.48700
O97         O  0.93295526  0.64734047  0.41038804    -0.55100
C98         C  0.93351757  0.64354488  0.48240621     0.85000
O99         O  0.95417984  0.58185217  0.44979453    -0.57000
O100        O  0.00875635  0.68775878  0.43127387    -0.60300
C101        C  0.09983759  0.75121487  0.38348674     0.80100
N102        N  0.07554344  0.73070989  0.40256481    -0.78200
C103        C  0.04879169  0.69925822  0.39481717     0.82500
N104        N  0.04637955  0.68862639  0.36823204    -0.78200
C105        C  0.06957381  0.70917424  0.34891918     0.82600
N106        N  0.09612832  0.74078301  0.35640868    -0.79900
C107        C  0.10591596  0.74871064  0.16432923     0.80100
N108        N  0.08543430  0.72381227  0.14547404    -0.78200
C109        C  0.05579103  0.69534505  0.15386899     0.82500
N110        N  0.04691216  0.69160067  0.18100333    -0.78200
C111        C  0.06740141  0.71531697  0.20014369     0.82600
N112        N  0.09716347  0.74396824  0.19192911    -0.79900
In113      In  0.02609045  0.66896519  0.27393466     1.36900
C114        C  0.06136131  0.69851393  0.31976108     0.77400
O115        O  0.07132604  0.69570342  0.24548159    -0.61000
O116        O  0.03009501  0.70239333  0.23827997    -0.51900
C117        C  0.00620677  0.61259915  0.24580414     0.70100
O118        O  0.02896903  0.62291642  0.26463959    -0.46800
C119        C  0.96871987  0.64874450  0.30000634     0.74800
O120        O  0.05516594  0.66978447  0.31165492    -0.58600
O121        O  0.98036523  0.67230638  0.28167054    -0.48700
O122        O  0.05381682  0.71424080  0.30251131    -0.55100
C123        C  0.05747682  0.70660926  0.22941912     0.85000
O124        O  0.99313838  0.63006868  0.24275340    -0.57000
O125        O  0.98540756  0.63494666  0.30357714    -0.60300
C126        C  0.99079098  0.52966275  0.50170241     0.80100
N127        N  0.99479631  0.53982800  0.02893861    -0.78200
C128        C  0.99344313  0.56735770  0.03587816     0.82500
N129        N  0.98773643  0.58423525  0.51591679    -0.78200
C130        C  0.98256124  0.57406154  0.48906688     0.82600
N131        N  0.98409824  0.54667172  0.48174960    -0.79900
C132        C  0.99507081  0.53447203  0.21440469     0.80100
N133        N  0.00118050  0.55856146  0.23371122    -0.78200
C134        C  0.99714879  0.58454015  0.22672211     0.82500
N135        N  0.98753705  0.58670394  0.20045737    -0.78200
C136        C  0.98272278  0.56382984  0.18077506     0.82600
N137        N  0.98698414  0.53786066  0.18757910    -0.79900
In138      In  0.99007090  0.61042464  0.10715345     1.36900
C139        C  0.98077335  0.57301688  0.15189339     0.77400
O140        O  0.96916335  0.56437033  0.07980939    -0.61000
O141        O  0.02013156  0.60696065  0.07314634    -0.51900
C142        C  0.95264673  0.62737152  0.07791872     0.70100
O143        O  0.98412627  0.64117218  0.07460155    -0.46800
C144        C  0.03311652  0.66741996  0.13483178     0.74800
O145        O  0.95964623  0.58059109  0.14422661    -0.58600
O146        O  0.00164965  0.64913460  0.13936182    -0.48700
O147        O  0.00410740  0.58053443  0.13472824    -0.55100
C148        C  0.99521138  0.57847167  0.06452600     0.85000
O149        O  0.93986154  0.60559210  0.09756393    -0.57000
O150        O  0.04305285  0.65792581  0.11454546    -0.60300
C151        C  0.66692979  0.76562524  0.13363259     0.80100
N152        N  0.67418125  0.74853152  0.15292844    -0.78200
C153        C  0.67405925  0.72036954  0.14530536     0.82500
N154        N  0.66719807  0.70974669  0.11853889    -0.78200
C155        C  0.66151583  0.72727088  0.09890517     0.82600
N156        N  0.66188892  0.75570643  0.10632357    -0.79900
C157        C  0.70095795  0.78522425  0.41777305     0.80100
N158        N  0.69597734  0.76180693  0.39820235    -0.78200
C159        C  0.69957667  0.73548345  0.40505522     0.82500
N160        N  0.70814670  0.73257691  0.43156635    -0.78200
C161        C  0.71225802  0.75499081  0.45151405     0.82600
N162        N  0.70792755  0.78095852  0.44471144    -0.79900
In163      In  0.68627365  0.70437039  0.02539469     1.36900
C164        C  0.71027805  0.74384178  0.48055711     0.77400
O165        O  0.65066336  0.64664425  0.51976532    -0.61000
O166        O  0.64382880  0.68012600  0.99406539    -0.51900
C167        C  0.73238128  0.69673513  0.05152488     0.70100
O168        O  0.71601898  0.67892711  0.03060549    -0.46800
C169        C  0.66412649  0.71957128  0.06988340     0.74800
O170        O  0.71959244  0.72388033  0.48780591    -0.58600
O171        O  0.65180243  0.68911833  0.06198334    -0.48700
O172        O  0.69319569  0.74770257  0.49850433    -0.55100
C173        C  0.63612429  0.64988136  0.49875518     0.85000
O174        O  0.72845766  0.72092813  0.05656912    -0.57000
O175        O  0.68439114  0.74245890  0.05295430    -0.60300
C176        C  0.57605412  0.55997336  0.25391863     0.80100
N177        N  0.58156141  0.57133972  0.28089156    -0.78200
C178        C  0.60985340  0.60246698  0.28734788     0.82500
N179        N  0.63262570  0.62123996  0.26724657    -0.78200
C180        C  0.62829289  0.60951744  0.24087113     0.82600
N181        N  0.59993032  0.57883509  0.23408039    -0.79900
C182        C  0.57475754  0.56540368  0.46627140     0.80100
N183        N  0.59068670  0.59055128  0.98612853    -0.78200
C184        C  0.61653174  0.62250814  0.47849734     0.82500
N185        N  0.62648649  0.62929717  0.45159050    -0.78200
C186        C  0.61156572  0.60450732  0.43201945     0.82600
N187        N  0.58547853  0.57247189  0.43921970    -0.79900
In188      In  0.65974639  0.64763248  0.35923245     1.36900
C189        C  0.62008056  0.61498928  0.31596098     0.77400
O190        O  0.70396136  0.64195628  0.35053267    -0.61000
O191        O  0.69715466  0.67690660  0.32634540    -0.51900
C192        C  0.68751661  0.70619423  0.38636691     0.70100
O193        O  0.69631938  0.68508224  0.39022002    -0.46800
C194        C  0.62440234  0.61393913  0.40355852     0.74800
O195        O  0.62817698  0.64486814  0.32273103    -0.58600
O196        O  0.64804180  0.61087380  0.39466620    -0.48700
O197        O  0.62841028  0.60008790  0.33340990    -0.55100
C198        C  0.71386059  0.66316237  0.33032076     0.85000
O199        O  0.66537286  0.69827534  0.36728376    -0.57000
O200        O  0.61673043  0.63112029  0.38814135    -0.60300
C201        C  0.78345753  0.66475568  0.08282724     0.80100
N202        N  0.77500688  0.66294893  0.11033353    -0.78200
C203        C  0.75410564  0.67331835  0.11814222     0.82500
N204        N  0.74222039  0.68569193  0.09870405    -0.78200
C205        C  0.74972568  0.68690185  0.07142032     0.82600
N206        N  0.77003777  0.67600300  0.06332287    -0.79900
C207        C  0.78725656  0.66686974  0.29756586     0.80100
N208        N  0.76491337  0.66340083  0.31737166    -0.78200
C209        C  0.74057406  0.66979363  0.31076326     0.82500
N210        N  0.73836014  0.67919195  0.28438219    -0.78200
C211        C  0.75942896  0.68144898  0.26423440     0.82600
N212        N  0.78364469  0.67473591  0.27070685    -0.79900
In213      In  0.71039214  0.67190505  0.19141134     1.36900
C214        C  0.74939035  0.68259042  0.23536927     0.77400
O215        O  0.66366315  0.61893701  0.20089641    -0.61000
O216        O  0.67435083  0.66249991  0.22456063    -0.51900
C217        C  0.68550720  0.70337992  0.16403849     0.70100
O218        O  0.67435052  0.67195538  0.16112114    -0.46800
C219        C  0.74296039  0.67141011  0.14695357     0.74800
O220        O  0.74231638  0.70414226  0.22736580    -0.58600
O221        O  0.71912937  0.64375726  0.15790769    -0.48700
O222        O  0.74072621  0.65821544  0.21869077    -0.55100
C223        C  0.65550451  0.63056322  0.22100236     0.85000
O224        O  0.70905079  0.71906993  0.18208389    -0.57000
O225        O  0.75215876  0.69842207  0.16042743    -0.60300
C226        C  0.45540819  0.43368048  0.49928962     0.80100
N227        N  0.43662500  0.40828063  0.48026064    -0.78200
C228        C  0.40692377  0.37936687  0.48804256     0.82500
N229        N  0.39589052  0.37599845  0.01458967    -0.78200
C230        C  0.41467443  0.40040557  0.03385043     0.82600
N231        N  0.44453037  0.42925267  0.02631827    -0.79900
C232        C  0.45075552  0.43533699  0.21800049     0.80100
N233        N  0.44655397  0.42667049  0.19038427    -0.78200
C234        C  0.41892986  0.39614036  0.18197341     0.82500
N235        N  0.39546015  0.37500696  0.20087231    -0.78200
C236        C  0.39856180  0.38388771  0.22800817     0.82600
N237        N  0.42621582  0.41418489  0.23668428    -0.79900
In238      In  0.37338869  0.35538073  0.10791135     1.36900
C239        C  0.40398301  0.39192990  0.06292101     0.77400
O240        O  0.39965726  0.40058985  0.13679394    -0.61000
O241        O  0.40647973  0.35903923  0.14348608    -0.51900
C242        C  0.31708559  0.33557976  0.13537277     0.70100
O243        O  0.33441098  0.32247903  0.13901823    -0.46800
C244        C  0.35373520  0.29803525  0.08099290     0.74800
O245        O  0.37604430  0.38691604  0.07115081    -0.58600
O246        O  0.34074647  0.31544949  0.07694571    -0.48700
O247        O  0.41848430  0.38253388  0.07972985    -0.55100
C248        C  0.41049613  0.38649011  0.15264550     0.85000
O249        O  0.32748327  0.35814364  0.11626966    -0.57000
O250        O  0.37595883  0.30879965  0.10027973    -0.60300
C251        C  0.33099731  0.20725974  0.33478541     0.80100
N252        N  0.33831824  0.21831870  0.36185871    -0.78200
C253        C  0.34440222  0.24969209  0.36848295     0.82500
N254        N  0.34252433  0.26921781  0.34827546    -0.78200
C255        C  0.33400181  0.25790252  0.32171671     0.82600
N256        N  0.32801677  0.22678489  0.31493743    -0.79900
C257        C  0.34605996  0.22070467  0.05126607     0.80100
N258        N  0.35019453  0.24431288  0.07029889    -0.78200
C259        C  0.34559934  0.26972471  0.06240307     0.82500
N260        N  0.33722540  0.27159083  0.03559083    -0.78200
C261        C  0.33425166  0.24902128  0.01632139     0.82600
N262        N  0.33921648  0.22381870  0.02404087    -0.79900
In263      In  0.34318608  0.29330551  0.44119968     1.36900
C264        C  0.33309411  0.25747917  0.98706253     0.77400
O265        O  0.32274092  0.24651243  0.41409298    -0.61000
O266        O  0.37174478  0.29079716  0.40509717    -0.51900
C267        C  0.30437001  0.30866869  0.41270462     0.70100
O268        O  0.33600988  0.32376558  0.40928280    -0.46800
C269        C  0.38550746  0.35102895  0.46876494     0.74800
O270        O  0.31222663  0.26491273  0.97840004    -0.58600
O271        O  0.39655775  0.34001895  0.45048891    -0.48700
O272        O  0.35629303  0.26375626  0.47024047    -0.55100
C273        C  0.34737212  0.26147449  0.39734004     0.85000
O274        O  0.29228572  0.28657943  0.43214148    -0.57000
O275        O  0.35368329  0.33386777  0.47121999    -0.60300
C276        C  0.23353658  0.31226309  0.38079252     0.80100
N277        N  0.24323995  0.31743328  0.35344877    -0.78200
C278        C  0.27361416  0.32232514  0.34637429     0.82500
N279        N  0.29352834  0.32097482  0.36631404    -0.78200
C280        C  0.28352845  0.31423951  0.39318301     0.82600
N281        N  0.25345797  0.30980699  0.40053584    -0.79900
C282        C  0.24092693  0.32786380  0.16605957     0.80100
N283        N  0.26472276  0.33311829  0.14704798    -0.78200
C284        C  0.28905150  0.32690083  0.15405084     0.82500
N285        N  0.29000012  0.31608347  0.18016227    -0.78200
C286        C  0.26756975  0.31219825  0.19967191     0.82600
N287        N  0.24317606  0.31854308  0.19277797    -0.79900
In288      In  0.31320243  0.31782661  0.27340598     1.36900
C289        C  0.27621968  0.30956996  0.22862223     0.77400
O290        O  0.26819085  0.29822933  0.30147986    -0.61000
O291        O  0.31261780  0.34806706  0.30889745    -0.51900
C292        C  0.32841705  0.27861480  0.30189023     0.70100
O293        O  0.34401963  0.31064628  0.30472089    -0.46800
C294        C  0.37033702  0.36099966  0.24651509     0.74800
O295        O  0.28303592  0.28769166  0.23610453    -0.58600
O296        O  0.36021579  0.37116903  0.26616479    -0.48700
O297        O  0.28421776  0.33310050  0.24601800    -0.55100
C298        C  0.28392180  0.32384669  0.31748115     0.85000
O299        O  0.30604183  0.26620474  0.28272473    -0.57000
O300        O  0.35237410  0.32919242  0.24202940    -0.60300
C301        C  0.77198864  0.10151888  0.33313402     0.80100
N302        N  0.75205370  0.07772583  0.31354875    -0.78200
C303        C  0.72046863  0.05105483  0.32011121     0.82500
N304        N  0.70879641  0.04811452  0.34633188    -0.78200
C305        C  0.72858692  0.07092893  0.36636204     0.82600
N306        N  0.76065832  0.09742439  0.35993060    -0.79900
C307        C  0.77180339  0.09996073  0.05036087     0.80100
N308        N  0.76558721  0.09194710  0.02263539    -0.78200
C309        C  0.73434718  0.06592400  0.51394032     0.82500
N310        N  0.70985270  0.04742315  0.03305781    -0.78200
C311        C  0.71539654  0.05508500  0.06047810     0.82600
N312        N  0.74645813  0.08144959  0.06932322    -0.79900
In313      In  0.69018243  0.02179077  0.44022783     1.36900
C314        C  0.71738435  0.06072038  0.39526072     0.77400
O315        O  0.70928278  0.06512109  0.47025028    -0.61000
O316        O  0.72721917  0.03157808  0.47464884    -0.51900
C317        C  0.63208054  0.99503722  0.46737820     0.70100
O318        O  0.64050349  0.01767448  0.44860112    -0.46800
C319        C  0.67959526  0.96717782  0.41368031     0.74800
O320        O  0.68694510  0.04859807  0.40231430    -0.58600
O321        O  0.70126386  0.98044459  0.43333845    -0.48700
O322        O  0.73525999  0.05711384  0.41319163    -0.55100
C323        C  0.72556353  0.05568131  0.48480445     0.85000
O324        O  0.65230582  0.98527867  0.47085660    -0.57000
O325        O  0.66264369  0.98052726  0.40926914    -0.60300
C326        C  0.68249996  0.89537067  0.38361637     0.80100
N327        N  0.67609121  0.89849159  0.35614086    -0.78200
C328        C  0.66845641  0.92189222  0.34844299     0.82500
N329        N  0.66833347  0.94261742  0.36787476    -0.78200
C330        C  0.67621739  0.94095734  0.39483642     0.82600
N331        N  0.68332129  0.91730260  0.40281718    -0.79900
C332        C  0.66559719  0.88484635  0.16781984     0.80100
N333        N  0.65981258  0.90249849  0.14795550    -0.78200
C334        C  0.66312291  0.93256965  0.15459260     0.82500
N335        N  0.67182904  0.94462483  0.18092892    -0.78200
C336        C  0.67627349  0.92675690  0.20109317     0.82600
N337        N  0.67270209  0.89647158  0.19468335    -0.79900
In338      In  0.66624187  0.96321397  0.27409420     1.36900
C339        C  0.66505725  0.92951026  0.31928564     0.77400
O340        O  0.65463735  0.91863184  0.24725186    -0.61000
O341        O  0.69732385  0.96857276  0.23714015    -0.51900
C342        C  0.62158865  0.97076449  0.24571618     0.70100
O343        O  0.61184233  0.94843792  0.26495508    -0.46800
C344        C  0.70122375  0.02194640  0.30126049     0.74800
O345        O  0.63923892  0.92931690  0.31070849    -0.58600
O346        O  0.71495039  0.01417957  0.28276929    -0.48700
O347        O  0.69002626  0.94310966  0.30283821    -0.55100
C348        C  0.67750122  0.93761365  0.22986767     0.85000
O349        O  0.65331210  0.98942744  0.24251757    -0.57000
O350        O  0.66975118  0.00084392  0.30432436    -0.60300
C351        C  0.55061962  0.97578739  0.21494249     0.80100
N352        N  0.56065580  0.98210309  0.18763489    -0.78200
C353        C  0.58986075  0.98474910  0.17994101     0.82500
N354        N  0.60888755  0.98115102  0.19933668    -0.78200
C355        C  0.59896368  0.97384375  0.22618315     0.82600
N356        N  0.56965125  0.97083644  0.23403879    -0.79900
C357        C  0.55167256  0.97727380  0.49827834     0.80100
N358        N  0.55662670  0.97115440  0.02526924    -0.78200
C359        C  0.58420003  0.97004436  0.03247988     0.82500
N360        N  0.60706692  0.97594893  0.51290823    -0.78200
C361        C  0.60333499  0.98328728  0.48621562     0.82600
N362        N  0.57569070  0.98418969  0.47886658    -0.79900
In363      In  0.63262116  0.98545813  0.10691867     1.36900
C364        C  0.59457234  0.97097414  0.06157771     0.77400
O365        O  0.58695953  0.96237868  0.13478949    -0.61000
O366        O  0.62835117  0.01376015  0.14247335    -0.51900
C367        C  0.65394406  0.95092912  0.13515833     0.70100
O368        O  0.63087376  0.93646164  0.11669114    -0.46800
C369        C  0.68814326  0.03171185  0.07953583     0.74800
O370        O  0.60465019  0.95211603  0.07031092    -0.58600
O371        O  0.67264972  0.99982742  0.07591080    -0.48700
O372        O  0.60016035  0.99474187  0.07791170    -0.55100
C373        C  0.60057612  0.98792602  0.15091719     0.85000
O374        O  0.66680594  0.98266133  0.13774928    -0.57000
O375        O  0.67628271  0.04087116  0.09858550    -0.60300
C376        C  0.35458827  0.10441924  0.08212499     0.80100
N377        N  0.34797943  0.08104009  0.06197577    -0.78200
C378        C  0.34893370  0.05300058  0.06838686     0.82500
N379        N  0.35591652  0.04819807  0.09489997    -0.78200
C380        C  0.36114396  0.07046927  0.11533701     0.82600
N381        N  0.35993663  0.09841253  0.10901770    -0.79900
C382        C  0.32171961  0.08383216  0.29742010     0.80100
N383        N  0.31456137  0.07291547  0.27036160    -0.78200
C384        C  0.31108618  0.04279717  0.26325233     0.82500
N385        N  0.31573290  0.02458133  0.28297068    -0.78200
C386        C  0.32445589  0.03608603  0.30942935     0.82600
N387        N  0.32768450  0.06584954  0.31666577    -0.79900
In388      In  0.33386710  0.01918350  0.18921061     1.36900
C389        C  0.35805811  0.05828435  0.14411150     0.77400
O390        O  0.28938396  0.99439379  0.15961192    -0.61000
O391        O  0.29998673  0.96169470  0.18235791    -0.51900
C392        C  0.38215101  0.01510278  0.21558403     0.70100
O393        O  0.36556390  0.99594720  0.19530649    -0.46800
C394        C  0.31221014  0.03391968  0.23421973     0.74800
O395        O  0.36579350  0.03698755  0.15091744    -0.58600
O396        O  0.30201689  0.00353637  0.22744943    -0.48700
O397        O  0.34207601  0.06328018  0.16236796    -0.55100
C398        C  0.28340899  0.96464421  0.16283586     0.85000
O399        O  0.37713965  0.03871228  0.21987452    -0.57000
O400        O  0.32933523  0.05635825  0.21584816    -0.60300
C401        C  0.22426159  0.88026280  0.12919051     0.80100
N402        N  0.23443850  0.88850374  0.10205913    -0.78200
C403        C  0.25893359  0.92137488  0.09511303     0.82500
N404        N  0.27299391  0.94573870  0.11509612    -0.78200
C405        C  0.26384608  0.93776524  0.14211621     0.82600
N406        N  0.23968468  0.90491487  0.14928782    -0.79900
C407        C  0.22304796  0.87954261  0.41685766     0.80100
N408        N  0.24742671  0.89787919  0.39723713    -0.78200
C409        C  0.27549863  0.92889134  0.40386471     0.82500
N410        N  0.27905453  0.94143831  0.42986962    -0.78200
C411        C  0.25576177  0.92318636  0.44978925     0.82600
N412        N  0.22789037  0.89175677  0.44349076    -0.79900
In413      In  0.30652101  0.96577678  0.02197559     1.36900
C414        C  0.27147494  0.93194987  0.06660514     0.77400
O415        O  0.34442232  0.00264286  0.05226940    -0.61000
O416        O  0.31377813  0.01710049  0.03042730    -0.51900
C417        C  0.36047269  0.97942901  0.99371166     0.70100
O418        O  0.35042946  0.95918860  0.01456120    -0.46800
C419        C  0.26603805  0.93527378  0.47847514     0.74800
O420        O  0.29244533  0.92616545  0.05574098    -0.58600
O421        O  0.27588850  0.96560720  0.48540451    -0.48700
O422        O  0.26618237  0.95219419  0.05305139    -0.55100
C423        C  0.33619836  0.02428168  0.04908084     0.85000
O424        O  0.34350098  0.99285671  0.48852524    -0.57000
O425        O  0.27267731  0.91902247  0.49593406    -0.60300
C426        C  0.43758034  0.98869799  0.24775385     0.80100
N427        N  0.42715423  0.98460951  0.27483875    -0.78200
C428        C  0.40422299  0.99234708  0.28235302     0.82500
N429        N  0.39157062  0.00394137  0.26289808    -0.78200
C430        C  0.40065731  0.00704826  0.23583377     0.82600
N431        N  0.42356633  0.99926687  0.22815300    -0.79900
C432        C  0.43630125  0.98543142  0.46412020     0.80100
N433        N  0.41303696  0.98135350  0.98299710    -0.78200
C434        C  0.38759404  0.98552763  0.97491105     0.82500
N435        N  0.38524686  0.99332113  0.44806014    -0.78200
C436        C  0.40744100  0.99613353  0.42882589     0.82600
N437        N  0.43282465  0.99167351  0.43670218    -0.79900
In438      In  0.35988788  0.98768946  0.35578136     1.36900
C439        C  0.39837568  0.99699918  0.39963258     0.77400
O440        O  0.31183282  0.93590972  0.36530385    -0.61000
O441        O  0.32376607  0.98060887  0.38801960    -0.51900
C442        C  0.33547495  0.01881211  0.32805896     0.70100
O443        O  0.32504470  0.98765970  0.32440275    -0.46800
C444        C  0.39269724  0.98925110  0.31110098     0.74800
O445        O  0.39407473  0.02014891  0.39055647    -0.58600
O446        O  0.36916655  0.96100428  0.32156358    -0.48700
O447        O  0.38712263  0.97115942  0.38400016    -0.55100
C448        C  0.30383597  0.94871938  0.38462165     0.85000
O449        O  0.35786332  0.03419077  0.34704318    -0.57000
O450        O  0.40175399  0.01571372  0.32531074    -0.60300
C451        C  0.46521470  0.98250792  0.47333700    -0.05500
C452        C  0.48498620  0.00017320  0.99704525    -0.02600
C453        C  0.51288439  0.99806453  0.00533832     0.02400
C454        C  0.52139909  0.97833969  0.49013929    -0.05500
C455        C  0.50116661  0.95964914  0.46676502    -0.02600
C456        C  0.47327707  0.96176298  0.45839667     0.02400
C457        C  0.47756011  0.02198292  0.01261416     0.37000
C458        C  0.50825512  0.93724365  0.45175669     0.37000
C459        C  0.45215910  0.94159285  0.43490300     0.35500
C460        C  0.53370959  0.01784396  0.02909650     0.35500
N461        N  0.43521299  0.92557381  0.41619324    -0.39400
N462        N  0.55038219  0.03353395  0.04803049    -0.39400
N463        N  0.51369271  0.91925322  0.43972709    -0.38800
N464        N  0.47178283  0.03937442  0.02518491    -0.38800
C465        C  0.52040146  0.97667718  0.22413054    -0.05500
C466        C  0.52073073  0.99080964  0.25037764    -0.02600
C467        C  0.49369901  0.99432972  0.25807531     0.02400
C468        C  0.46540600  0.98337946  0.23995260    -0.05500
C469        C  0.46458528  0.96848541  0.21406456    -0.02600
C470        C  0.49177311  0.96519970  0.20621629     0.02400
C471        C  0.54958737  0.00347118  0.26935594     0.37000
C472        C  0.43547113  0.95593377  0.19541231     0.37000
C473        C  0.48968296  0.94936435  0.17967415     0.35500
C474        C  0.49629443  0.01117593  0.28423702     0.35500
N475        N  0.48792590  0.93688736  0.15840930    -0.39400
N476        N  0.49849054  0.02462863  0.30508456    -0.39400
N477        N  0.41235956  0.94605926  0.18045298    -0.38800
N478        N  0.57237177  0.01352677  0.28470623    -0.38800
C479        C  0.35343897  0.13499359  0.07506356    -0.05500
C480        C  0.37366660  0.15724269  0.05320640    -0.02600
C481        C  0.37158956  0.18552956  0.04564861     0.02400
C482        C  0.34944126  0.19192235  0.06002823    -0.05500
C483        C  0.32976950  0.17012472  0.08231769    -0.02600
C484        C  0.33165916  0.14167890  0.08973236     0.02400
C485        C  0.39742652  0.15165596  0.03897664     0.37000
C486        C  0.30644916  0.17604193  0.09694012     0.37000
C487        C  0.31002210  0.11845953  0.11168370     0.35500
C488        C  0.39295971  0.20859171  0.02351531     0.35500
N489        N  0.29274748  0.09990350  0.12915378    -0.39400
N490        N  0.40995290  0.22702479  0.00587382    -0.39400
N491        N  0.28786551  0.18074106  0.10862852    -0.38800
N492        N  0.41646616  0.14730313  0.02767020    -0.38800
C493        C  0.32796221  0.17498926  0.32625038    -0.05500
C494        C  0.35624935  0.17184428  0.32914655    -0.02600
C495        C  0.35440967  0.14233202  0.31925980     0.02400
C496        C  0.32437318  0.11584003  0.30609624    -0.05500
C497        C  0.29616292  0.11905760  0.30299023    -0.02600
C498        C  0.29795479  0.14853566  0.31300392     0.02400
C499        C  0.38787082  0.19971176  0.34115663     0.37000
C500        C  0.26481321  0.09140114  0.29044909     0.37000
C501        C  0.26856882  0.15123091  0.31024347     0.35500
C502        C  0.38385487  0.13968385  0.32198043     0.35500
N503        N  0.24503435  0.15323382  0.30803640    -0.39400
N504        N  0.40730209  0.13752798  0.32416446    -0.39400
N505        N  0.23985795  0.06920594  0.28050004    -0.38800
N506        N  0.41314763  0.22202263  0.35058714    -0.38800
C507        C  0.48642789  0.46675662  0.49033495    -0.05500
C508        C  0.48515778  0.48435474  0.46647028    -0.02600
C509        C  0.51415052  0.51615820  0.45832712     0.02400
C510        C  0.54472593  0.53100840  0.47411348    -0.05500
C511        C  0.54562367  0.51361852  0.99819546    -0.02600
C512        C  0.51668494  0.48163487  0.00616257     0.02400
C513        C  0.45343534  0.47077796  0.45104664     0.37000
C514        C  0.57686374  0.52811406  0.01445398     0.37000
C515        C  0.51870490  0.46370408  0.03039579     0.35500
C516        C  0.51179414  0.53432643  0.43440095     0.35500
N517        N  0.52037359  0.44948787  0.04975726    -0.39400
N518        N  0.50983026  0.54874222  0.41532114    -0.39400
N519        N  0.60173727  0.53971235  0.02747529    -0.38800
N520        N  0.42813717  0.46005842  0.43880038    -0.38800
C521        C  0.48227993  0.46739179  0.22783065    -0.05500
C522        C  0.50222656  0.46607382  0.24972706    -0.02600
C523        C  0.53270163  0.49629676  0.25851452     0.02400
C524        C  0.54347265  0.52810778  0.24555840    -0.05500
C525        C  0.52332707  0.52947490  0.22390992    -0.02600
C526        C  0.49297951  0.49928967  0.21504243     0.02400
C527        C  0.49227741  0.43333729  0.26238916     0.37000
C528        C  0.53341205  0.56219282  0.21110728     0.37000
C529        C  0.47236567  0.50128642  0.19313023     0.35500
C530        C  0.55379569  0.49434817  0.27998211     0.35500
N531        N  0.45597298  0.50291520  0.17563065    -0.39400
N532        N  0.57069525  0.49274899  0.29700987    -0.39400
N533        N  0.54152801  0.58831717  0.20094031    -0.38800
N534        N  0.48431899  0.40718115  0.27240447    -0.38800
C535        C  0.69568495  0.81337800  0.41012462    -0.05500
C536        C  0.66807779  0.80646016  0.39251065    -0.02600
C537        C  0.66412916  0.83326582  0.38370993     0.02400
C538        C  0.68726933  0.86732649  0.39277132    -0.05500
C539        C  0.71393143  0.87402195  0.41146105    -0.02600
C540        C  0.71819684  0.84724650  0.41996668     0.02400
C541        C  0.64254353  0.77142210  0.38447470     0.37000
C542        C  0.73757629  0.90861391  0.42153699     0.37000
C543        C  0.74636884  0.85496449  0.43843352     0.35500
C544        C  0.63509820  0.82524660  0.36622531     0.35500
N545        N  0.76872619  0.86116142  0.45326018    -0.39400
N546        N  0.61195096  0.81877973  0.35231021    -0.39400
N547        N  0.75638046  0.93615588  0.42974696    -0.38800
N548        N  0.62211450  0.74344345  0.37817381    -0.38800
C549        C  0.66641856  0.79609194  0.14222752    -0.05500
C550        C  0.69488964  0.82365260  0.15611686    -0.02600
C551        C  0.69422782  0.85217448  0.16506765     0.02400
C552        C  0.66521529  0.85367411  0.15991448    -0.05500
C553        C  0.63673136  0.82614359  0.14594888    -0.02600
C554        C  0.63731572  0.79746127  0.13716919     0.02400
C555        C  0.72560729  0.82345062  0.15999427     0.37000
C556        C  0.60640154  0.82685938  0.14129257     0.37000
C557        C  0.60759577  0.76897393  0.12351482     0.35500
C558        C  0.72409555  0.88066136  0.17858486     0.35500
N559        N  0.58389051  0.74626024  0.11261114    -0.39400
N560        N  0.74793509  0.90336834  0.18935423    -0.39400
N561        N  0.58220292  0.82743080  0.13762468    -0.38800
N562        N  0.75010116  0.82323990  0.16285733    -0.38800
C563        C  0.13687189  0.78147602  0.15450884    -0.05500
C564        C  0.16827271  0.79594302  0.16901586    -0.02600
C565        C  0.19710087  0.82758273  0.16019924     0.02400
C566        C  0.19495591  0.84522049  0.13676940    -0.05500
C567        C  0.16381955  0.83032224  0.12179051    -0.02600
C568        C  0.13493647  0.79884255  0.13070446     0.02400
C569        C  0.17123212  0.77804407  0.19281839     0.37000
C570        C  0.16081335  0.84811387  0.09788676     0.37000
C571        C  0.10270390  0.78549695  0.11614186     0.35500
C572        C  0.22926932  0.84158803  0.17496750     0.35500
N573        N  0.07704846  0.77501602  0.10452462    -0.39400
N574        N  0.25491870  0.85270587  0.18674840    -0.39400
N575        N  0.15837078  0.86220354  0.07879187    -0.38800
N576        N  0.17358371  0.76381444  0.21184778    -0.38800
C577        C  0.19143480  0.84629698  0.40911144    -0.05500
C578        C  0.15903330  0.84012590  0.41522304    -0.02600
C579        C  0.12904791  0.80903572  0.40706094     0.02400
C580        C  0.13116134  0.78402990  0.39234957    -0.05500
C581        C  0.16354791  0.79019401  0.38628794    -0.02600
C582        C  0.19347835  0.82108665  0.39464485     0.02400
C583        C  0.15644816  0.86645901  0.42872555     0.37000
C584        C  0.16618137  0.76419515  0.37219344     0.37000
C585        C  0.22641979  0.82641618  0.38893759     0.35500
C586        C  0.09603021  0.80339745  0.41294639     0.35500
N587        N  0.25265519  0.83061672  0.38434296    -0.39400
N588        N  0.06973092  0.79897554  0.41767399    -0.39400
N589        N  0.16814873  0.74340135  0.36093887    -0.38800
N590        N  0.15447215  0.88757087  0.43938455    -0.38800
C591        C  0.86082301  0.64699946  0.05579849    -0.05500
C592        C  0.82790725  0.62849324  0.04357882    -0.02600
C593        C  0.80239147  0.63373819  0.05270268     0.02400
C594        C  0.80943069  0.65736501  0.07427298    -0.05500
C595        C  0.84232455  0.67581122  0.08649417    -0.02600
C596        C  0.86787112  0.67083135  0.07722829     0.02400
C597        C  0.81996564  0.60336726  0.02209339     0.37000
C598        C  0.85049680  0.70125999  0.10778691     0.37000
C599        C  0.90201559  0.69166055  0.08890735     0.35500
C600        C  0.76859706  0.61418796  0.04028670     0.35500
N601        N  0.92926512  0.70836342  0.09813509    -0.39400
N602        N  0.74162446  0.59856343  0.03039346    -0.39400
N603        N  0.85697859  0.72157045  0.12473387    -0.38800
N604        N  0.81363913  0.58329382  0.00496842    -0.38800
C605        C  0.86582695  0.64856522  0.32133462    -0.05500
C606        C  0.85989814  0.66991330  0.33773437    -0.02600
C607        C  0.83463657  0.67624592  0.32971651     0.02400
C608        C  0.81477873  0.66110928  0.30528411    -0.05500
C609        C  0.82101263  0.64009492  0.28868416    -0.02600
C610        C  0.84627366  0.63373684  0.29673521     0.02400
C611        C  0.88046588  0.68630595  0.36252307     0.37000
C612        C  0.80073312  0.62397980  0.26372276     0.37000
C613        C  0.85102112  0.61063393  0.28021476     0.35500
C614        C  0.83008402  0.69950867  0.34620234     0.35500
N615        N  0.85464602  0.59212269  0.26702259    -0.39400
N616        N  0.82654100  0.71809508  0.35936544    -0.39400
N617        N  0.78466085  0.61122259  0.24376013    -0.38800
N618        N  0.89681050  0.69929267  0.38232085    -0.38800
C619        C  0.00450030  0.45003618  0.23955523    -0.05500
C620        C  0.98576419  0.45922409  0.25594303    -0.02600
C621        C  0.98237022  0.48647574  0.24751606     0.02400
C622        C  0.99786917  0.50507075  0.22268139    -0.05500
C623        C  0.01656817  0.49591225  0.20625906    -0.02600
C624        C  0.01978642  0.46848834  0.21458100     0.02400
C625        C  0.96929650  0.44026848  0.28132232     0.37000
C626        C  0.03410598  0.51585639  0.18151995     0.37000
C627        C  0.04032933  0.46051373  0.19798585     0.35500
C628        C  0.96225227  0.49484372  0.26430554     0.35500
N629        N  0.05674898  0.45427215  0.18468842    -0.39400
N630        N  0.94633180  0.50156125  0.27778819    -0.39400
N631        N  0.04816243  0.53189287  0.16187819    -0.38800
N632        N  0.95631675  0.42531300  0.30164058    -0.38800
C633        C  0.00780312  0.45032642  0.47725784    -0.05500
C634        C  0.03164675  0.47795039  0.99441937    -0.02600
C635        C  0.02589766  0.50355742  0.00252257     0.02400
C636        C  0.99616824  0.50194050  0.49357409    -0.05500
C637        C  0.97238601  0.47455387  0.47625813    -0.02600
C638        C  0.97803018  0.44874069  0.46836623     0.02400
C639        C  0.06305113  0.48085799  0.00287868     0.37000
C640        C  0.94172300  0.47250274  0.46687016     0.37000
C641        C  0.95258150  0.41988580  0.45180760     0.35500
C642        C  0.05165796  0.53240009  0.01896863     0.35500
N643        N  0.93230140  0.39674941  0.43868935    -0.39400
N644        N  0.07228668  0.55540523  0.03200506    -0.39400
N645        N  0.91730563  0.47087889  0.45923236    -0.38800
N646        N  0.08810692  0.48323775  0.00962505    -0.38800
C647        C  0.80652741  0.13065336  0.32515514    -0.05500
C648        C  0.81700787  0.16483694  0.33105658    -0.02600
C649        C  0.84887690  0.19249310  0.32172518     0.02400
C650        C  0.87065469  0.18626032  0.30639546    -0.05500
C651        C  0.86012428  0.15203552  0.30049395    -0.02600
C652        C  0.82830356  0.12441660  0.30986466     0.02400
C653        C  0.79444995  0.17175160  0.34574723     0.37000
C654        C  0.88248032  0.14495386  0.28565144     0.37000
C655        C  0.81844253  0.08941521  0.30437651     0.35500
C656        C  0.85869590  0.22747782  0.32718387     0.35500
N657        N  0.81048264  0.06149674  0.29997427    -0.39400
N658        N  0.86660742  0.25538955  0.33154901    -0.39400
N659        N  0.90019545  0.13916265  0.27381262    -0.38800
N660        N  0.77648739  0.17734178  0.35741607    -0.38800
C661        C  0.80656848  0.12801515  0.05974088    -0.05500
C662        C  0.82347675  0.12246900  0.08186140    -0.02600
C663        C  0.85712997  0.14850559  0.08953683     0.02400
C664        C  0.87436721  0.18040292  0.07518512    -0.05500
C665        C  0.85753514  0.18584106  0.05298078    -0.02600
C666        C  0.82368186  0.16005735  0.04565132     0.02400
C667        C  0.80685474  0.08951685  0.09617117     0.37000
C668        C  0.87484324  0.21838421  0.53766362     0.37000
C669        C  0.80600171  0.16732323  0.52404537     0.35500
C670        C  0.87465280  0.14166515  0.11129494     0.35500
N671        N  0.79168249  0.17285365  0.50709809    -0.39400
N672        N  0.88869732  0.13618795  0.12854901    -0.39400
N673        N  0.88871158  0.24404643  0.52534814    -0.38800
N674        N  0.79368316  0.06330147  0.10767087    -0.38800
C675        C  0.20205649  0.31063007  0.38924971    -0.05500
C676        C  0.17863212  0.28493103  0.40792361    -0.02600
C677        C  0.14935179  0.28414604  0.41638612     0.02400
C678        C  0.14322574  0.30928417  0.40652740    -0.05500
C679        C  0.16674738  0.33496977  0.38780066    -0.02600
C680        C  0.19596412  0.33572667  0.37939294     0.02400
C681        C  0.18414481  0.25867312  0.41805922     0.37000
C682        C  0.16169945  0.36153646  0.37762870     0.37000
C683        C  0.22067639  0.36361519  0.36162422     0.35500
C684        C  0.12488449  0.25648223  0.43441113     0.35500
N685        N  0.24038947  0.38594309  0.34755230    -0.39400
N686        N  0.10539981  0.23435342  0.44875336    -0.39400
N687        N  0.15767199  0.38264081  0.36933003    -0.38800
N688        N  0.18856974  0.23780194  0.42626371    -0.35200
C689        C  0.15949471  0.34129452  0.14060810    -0.05500
C690        C  0.17711715  0.35518466  0.16615238    -0.02600
C691        C  0.20339779  0.35054466  0.17468339     0.02400
C692        C  0.21296159  0.33263839  0.15745578    -0.05500
C693        C  0.19588720  0.31951595  0.13155538    -0.02600
C694        C  0.16940604  0.32384775  0.12318527     0.02400
C695        C  0.16914593  0.37548455  0.18328840     0.37000
C696        C  0.20437272  0.30007102  0.11381834     0.37000
C697        C  0.15167078  0.30912515  0.09694840     0.35500
C698        C  0.22101344  0.36496304  0.20099575     0.35500
N699        N  0.13769790  0.29751868  0.07596321    -0.39400
N700        N  0.23490151  0.37630591  0.22205729    -0.39400
N701        N  0.21106617  0.28460679  0.09957982    -0.38800
N702        N  0.16291895  0.39181986  0.19687603    -0.38800
C703        C  0.12960585  0.34299975  0.63299188     0.80100
N704        N  0.10532768  0.33482037  0.65242812    -0.78200
C705        C  0.07740624  0.33535721  0.64558300     0.82500
N706        N  0.07331643  0.34314177  0.61911055    -0.78200
C707        C  0.09644506  0.34988820  0.59921072     0.82600
N708        N  0.12449353  0.34948600  0.60614141    -0.79900
C709        C  0.11196928  0.30841148  0.91533101     0.80100
N710        N  0.09447203  0.31519354  0.89617167    -0.78200
C711        C  0.06616611  0.31425585  0.90373750     0.82500
N712        N  0.05523123  0.30636122  0.93032913    -0.78200
C713        C  0.07269308  0.30060543  0.94989319     0.82600
N714        N  0.10163201  0.30236220  0.94255339    -0.79900
In715      In  0.04717794  0.32023854  0.52454119     1.36900
C716        C  0.08500731  0.34652911  0.57010608     0.77400
O717        O  0.02473451  0.27677054  0.55566125    -0.61000
O718        O  0.99036229  0.28248191  0.53074710    -0.51900
C719        C  0.04072680  0.36755268  0.49860778     0.70100
O720        O  0.01998035  0.34776559  0.51686521    -0.46800
C721        C  0.06350481  0.30076796  0.97904190     0.74800
O722        O  0.06283771  0.35273045  0.56278392    -0.58600
O723        O  0.03317769  0.28958321  0.98562879    -0.48700
O724        O  0.09145659  0.33124994  0.55208017    -0.55100
C725        C  0.99441603  0.26789962  0.55137662     0.85000
O726        O  0.06645902  0.36610987  0.99616083    -0.57000
O727        O  0.08526892  0.31768753  0.99788783    -0.60300
C728        C  0.90980617  0.20795495  0.58338997     0.80100
N729        N  0.93478366  0.22363539  0.56378526    -0.78200
C730        C  0.96746759  0.24701679  0.57170173     0.82500
N731        N  0.97483886  0.25520317  0.59903622    -0.78200
C732        C  0.95010010  0.24088063  0.61853508     0.82600
N733        N  0.91748696  0.21733322  0.61073057    -0.79900
C734        C  0.90515936  0.21539590  0.79810303     0.80100
N735        N  0.92519576  0.23979839  0.81730762    -0.78200
C736        C  0.95710825  0.26569909  0.81056132     0.82500
N737        N  0.96905977  0.26710678  0.78470288    -0.78200
C738        C  0.94925055  0.24366776  0.76508734     0.82600
N739        N  0.91684982  0.21806521  0.77158802    -0.79900
In740      In  0.99087626  0.29068923  0.69180274     1.36900
C741        C  0.96111522  0.25229608  0.73620633     0.77400
O742        O  0.01884839  0.32987811  0.72404341    -0.61000
O743        O  0.98267087  0.33388382  0.69936523    -0.51900
C744        C  0.04848377  0.32153252  0.66445712     0.70100
O745        O  0.04220096  0.29946491  0.68338768    -0.46800
C746        C  0.95935525  0.25390934  0.64713496     0.74800
O747        O  0.99132440  0.26233393  0.72968591    -0.58600
O748        O  0.95238141  0.27460823  0.65710887    -0.48700
O749        O  0.94453209  0.25713966  0.71777535    -0.55100
C750        C  0.00399616  0.34542400  0.71947756     0.85000
O751        O  0.02624027  0.32875263  0.66096393    -0.57000
O752        O  0.97927323  0.24932336  0.66179352    -0.60300
C753        C  0.01456445  0.42413769  0.96803088     0.80100
N754        N  0.02393235  0.40848883  0.48725478    -0.78200
C755        C  0.03303810  0.38677693  0.47877541     0.82500
N756        N  0.03180829  0.37997019  0.95125942    -0.78200
C757        C  0.02147280  0.39416956  0.93204728     0.82600
N758        N  0.01287732  0.41641050  0.94036113    -0.79900
C759        C  0.00897059  0.42189891  0.74866722     0.80100
N760        N  0.00453354  0.39775541  0.73002830    -0.78200
C761        C  0.01009727  0.37305978  0.73810685     0.82500
N762        N  0.01970595  0.37235417  0.76475737    -0.78200
C763        C  0.02306718  0.39536765  0.78373308     0.82600
N764        N  0.01723696  0.41995586  0.77579527    -0.79900
In765      In  0.01817877  0.35097312  0.85785853     1.36900
C766        C  0.02561633  0.38780274  0.81310055     0.77400
O767        O  0.00968499  0.31344853  0.82587158    -0.61000
O768        O  0.96623933  0.30352153  0.84870532    -0.51900
C769        C  0.04932916  0.32595515  0.88516592     0.70100
O770        O  0.01849365  0.31554149  0.88874145    -0.46800
C771        C  0.01885834  0.38351909  0.90291913     0.74800
O772        O  0.04893695  0.38381703  0.82183423    -0.58600
O773        O  0.99127588  0.35904612  0.89245710    -0.48700
O774        O  0.00108046  0.37780167  0.82962690    -0.55100
C775        C  0.97801920  0.29443876  0.82939873     0.85000
O776        O  0.06460724  0.34887182  0.86647408    -0.57000
O777        O  0.04514008  0.39389630  0.88841475    -0.60300
C778        C  0.89292882  0.64297318  0.82979948     0.80100
N779        N  0.89495535  0.63397475  0.85665178    -0.78200
C780        C  0.91874868  0.62696218  0.86392410     0.82500
N781        N  0.94101814  0.63003320  0.84457527    -0.78200
C782        C  0.94035020  0.64056104  0.81824384     0.82600
N783        N  0.91643469  0.64729484  0.81085417    -0.79900
C784        C  0.88817766  0.64178673  0.54655140     0.80100
N785        N  0.89673547  0.64485697  0.51894751    -0.78200
C786        C  0.92396473  0.64352298  0.51138018     0.82500
N787        N  0.94198149  0.63882041  0.53108660    -0.78200
C788        C  0.93302381  0.63440473  0.55818545     0.82600
N789        N  0.90600121  0.63574522  0.56601431    -0.79900
In790      In  0.96245270  0.63433313  0.93945779     1.36900
C791        C  0.92712791  0.62496986  0.89314082     0.77400
O792        O  0.91747776  0.61717188  0.96729347    -0.61000
O793        O  0.96243884  0.66688158  0.97344192    -0.51900
C794        C  0.97640835  0.59451984  0.96908113     0.70100
O795        O  0.99151163  0.62649992  0.97206184    -0.46800
C796        C  0.02061803  0.67704151  0.91352501     0.74800
O797        O  0.93473898  0.60394701  0.90133757    -0.58600
O798        O  0.00375610  0.64496829  0.91064210    -0.48700
O799        O  0.93338061  0.64804239  0.91043966    -0.55100
C800        C  0.93352827  0.64361590  0.98242914     0.85000
O801        O  0.95430983  0.58209779  0.94971690    -0.57000
O802        O  0.00903007  0.68788680  0.93136632    -0.60300
C803        C  0.10006069  0.75110548  0.88353987     0.80100
N804        N  0.07575429  0.73063560  0.90261623    -0.78200
C805        C  0.04896080  0.69921474  0.89487051     0.82500
N806        N  0.04651145  0.68857668  0.86828284    -0.78200
C807        C  0.06971558  0.70909268  0.84896406     0.82600
N808        N  0.09632535  0.74067630  0.85645604    -0.79900
C809        C  0.10578966  0.74879983  0.66433479     0.80100
N810        N  0.08535616  0.72389740  0.64546957    -0.78200
C811        C  0.05573329  0.69540051  0.65385138     0.82500
N812        N  0.04682226  0.69164164  0.68098036    -0.78200
C813        C  0.06727314  0.71537474  0.70012731     0.82600
N814        N  0.09701971  0.74404705  0.69192696    -0.79900
In815      In  0.02607410  0.66906022  0.77394996     1.36900
C816        C  0.06143898  0.69844659  0.81980121     0.77400
O817        O  0.07131366  0.69593649  0.74550757    -0.61000
O818        O  0.02990050  0.70231959  0.73823022    -0.51900
C819        C  0.00626528  0.61269415  0.74581418     0.70100
O820        O  0.02904994  0.62306668  0.76463176    -0.46800
C821        C  0.96877555  0.64918152  0.80000965     0.74800
O822        O  0.05497242  0.66961425  0.81170710    -0.58600
O823        O  0.98059610  0.67280933  0.78173001    -0.48700
O824        O  0.05410513  0.71432742  0.80253348    -0.55100
C825        C  0.05734829  0.70667199  0.72939919     0.85000
O826        O  0.99311250  0.63008695  0.74279818    -0.57000
O827        O  0.98522547  0.63512058  0.80350532    -0.60300
C828        C  0.99082354  0.52985568  0.00165982     0.80100
N829        N  0.99476928  0.53965592  0.52897745    -0.78200
C830        C  0.99342549  0.56719618  0.53590215     0.82500
N831        N  0.98775589  0.58440807  0.01590189    -0.78200
C832        C  0.98259318  0.57425605  0.98904574     0.82600
N833        N  0.98413327  0.54687287  0.98171437    -0.79900
C834        C  0.99527273  0.53462760  0.71441828     0.80100
N835        N  0.00134000  0.55870629  0.73372005    -0.78200
C836        C  0.99727294  0.58466013  0.72671990     0.82500
N837        N  0.98767791  0.58681483  0.70044380    -0.78200
C838        C  0.98289866  0.56394274  0.68076967     0.82600
N839        N  0.98718681  0.53799824  0.68759031    -0.79900
In840      In  0.99019397  0.61044012  0.60712085     1.36900
C841        C  0.98096448  0.57310049  0.65187740     0.77400
O842        O  0.96921180  0.56431692  0.57984430    -0.61000
O843        O  0.02019336  0.60685758  0.57312418    -0.51900
C844        C  0.95281667  0.62741722  0.57786225     0.70100
O845        O  0.98425502  0.64104764  0.57443067    -0.46800
C846        C  0.03312448  0.66746133  0.63480383     0.74800
O847        O  0.95972306  0.58049332  0.64414034    -0.58600
O848        O  0.00165185  0.64913980  0.63929678    -0.48700
O849        O  0.00438980  0.58075415  0.63476906    -0.55100
C850        C  0.99524342  0.57836213  0.56454165     0.85000
O851        O  0.94006035  0.60578377  0.59761067    -0.57000
O852        O  0.04312774  0.65799269  0.61454562    -0.60300
C853        C  0.66702602  0.76575554  0.63350909     0.80100
N854        N  0.67423124  0.74866064  0.65284363    -0.78200
C855        C  0.67400814  0.72042223  0.64528015     0.82500
N856        N  0.66709329  0.70972641  0.61853124    -0.78200
C857        C  0.66145810  0.72724853  0.59885939     0.82600
N858        N  0.66193508  0.75575614  0.60622130    -0.79900
C859        C  0.70105344  0.78544527  0.91783945     0.80100
N860        N  0.69569404  0.76187659  0.89827882    -0.78200
C861        C  0.69920407  0.73549065  0.90510135     0.82500
N862        N  0.70792158  0.73261616  0.93156651    -0.78200
C863        C  0.71231088  0.75514573  0.95151047     0.82600
N864        N  0.70819501  0.78125831  0.94473742    -0.79900
In865      In  0.68624029  0.70421953  0.52541358     1.36900
C866        C  0.71034020  0.74398382  0.98054182     0.77400
O867        O  0.65073611  0.64678823  0.01976419    -0.61000
O868        O  0.64395560  0.68002596  0.49394382    -0.51900
C869        C  0.73226581  0.69647396  0.55160610     0.70100
O870        O  0.71584900  0.67862721  0.53071781    -0.46800
C871        C  0.66409082  0.71951407  0.56985292     0.74800
O872        O  0.71951954  0.72390005  0.98773661    -0.58600
O873        O  0.65165053  0.68904612  0.56193405    -0.48700
O874        O  0.69336443  0.74794433  0.99852940    -0.55100
C875        C  0.63605555  0.64999146  0.99884258     0.85000
O876        O  0.72842973  0.72073787  0.55658988    -0.57000
O877        O  0.68447929  0.74237173  0.55296561    -0.60300
C878        C  0.57605597  0.55982368  0.75397993     0.80100
N879        N  0.58149441  0.57122577  0.78093617    -0.78200
C880        C  0.60971210  0.60240497  0.78738594     0.82500
N881        N  0.63248903  0.62120377  0.76729286    -0.78200
C882        C  0.62822806  0.60945316  0.74093187     0.82600
N883        N  0.59993327  0.57871151  0.73414832    -0.79900
C884        C  0.57451152  0.56551992  0.96640314     0.80100
N885        N  0.59086545  0.59043461  0.48600041    -0.78200
C886        C  0.61639112  0.62260539  0.97860807     0.82500
N887        N  0.62631222  0.62937014  0.95169308    -0.78200
C888        C  0.61132011  0.60458267  0.93212698     0.82600
N889        N  0.58520177  0.57257268  0.93934289    -0.79900
In890      In  0.65939864  0.64766327  0.85929838     1.36900
C891        C  0.61986272  0.61495390  0.81599750     0.77400
O892        O  0.70373115  0.64215364  0.85063431    -0.61000
O893        O  0.69684560  0.67706636  0.82647003    -0.51900
C894        C  0.68708066  0.70619285  0.88642254     0.70100
O895        O  0.69593999  0.68512266  0.89024319    -0.46800
C896        C  0.62411747  0.61398518  0.90365280     0.74800
O897        O  0.62786444  0.64481002  0.82274174    -0.58600
O898        O  0.64781734  0.61100693  0.89477809    -0.48700
O899        O  0.62820098  0.60009876  0.83348805    -0.55100
C900        C  0.71363385  0.66341172  0.83045908     0.85000
O901        O  0.66488733  0.69824441  0.86737562    -0.57000
O902        O  0.61634325  0.63105804  0.88819930    -0.60300
C903        C  0.78346292  0.66464901  0.58298266     0.80100
N904        N  0.77502318  0.66288537  0.61049230    -0.78200
C905        C  0.75406019  0.67319523  0.61827585     0.82500
N906        N  0.74210671  0.68547029  0.59880835    -0.78200
C907        C  0.74960402  0.68664604  0.57152587     0.82600
N908        N  0.76997695  0.67580686  0.56345700    -0.79900
C909        C  0.78738602  0.66767181  0.79783025     0.80100
N910        N  0.76492926  0.66402488  0.81760380    -0.78200
C911        C  0.74044729  0.67020500  0.81094717     0.82500
N912        N  0.73819877  0.67954973  0.78455364    -0.78200
C913        C  0.75938387  0.68197997  0.76444210     0.82600
N914        N  0.78374742  0.67550120  0.77096681    -0.79900
In915      In  0.71033843  0.67200317  0.69150650     1.36900
C916        C  0.74932263  0.68296755  0.73555179     0.77400
O917        O  0.66372667  0.61895362  0.70102975    -0.61000
O918        O  0.67414701  0.66249862  0.72456611    -0.51900
C919        C  0.68545005  0.70344663  0.66404593     0.70100
O920        O  0.67432696  0.67202904  0.66114437    -0.46800
C921        C  0.74293558  0.67135738  0.64709384     0.74800
O922        O  0.74218410  0.70443120  0.72743330    -0.58600
O923        O  0.71905443  0.64375266  0.65806286    -0.48700
O924        O  0.74072182  0.65853545  0.71895462    -0.55100
C925        C  0.65543447  0.63054362  0.72106760     0.85000
O926        O  0.70895964  0.71914511  0.68211324    -0.57000
O927        O  0.75217420  0.69839781  0.66053928    -0.60300
C928        C  0.45509627  0.43373250  0.99927577     0.80100
N929        N  0.43636281  0.40833094  0.98023485    -0.78200
C930        C  0.40661604  0.37943836  0.98797237     0.82500
N931        N  0.39629146  0.37590489  0.51469420    -0.78200
C932        C  0.41512369  0.40032074  0.53393938     0.82600
N933        N  0.44492882  0.42919377  0.52635822    -0.79900
C934        C  0.45086577  0.43499254  0.71822119     0.80100
N935        N  0.44672133  0.42631340  0.69061313    -0.78200
C936        C  0.41913434  0.39577632  0.68218208     0.82500
N937        N  0.39561959  0.37464613  0.70105955    -0.78200
C938        C  0.39865500  0.38354375  0.72819156     0.82600
N939        N  0.42628953  0.41384997  0.73688445    -0.79900
In940      In  0.37373581  0.35537065  0.60799022     1.36900
C941        C  0.40447587  0.39189277  0.56302592     0.77400
O942        O  0.40023035  0.40053003  0.63692099    -0.61000
O943        O  0.40651882  0.35864274  0.64367711    -0.51900
C944        C  0.31745600  0.33576607  0.63541164     0.70100
O945        O  0.33468474  0.32256129  0.63905844    -0.46800
C946        C  0.35380999  0.29800793  0.58099041     0.74800
O947        O  0.37667312  0.38715876  0.57131994    -0.58600
O948        O  0.34093675  0.31553878  0.57700019    -0.48700
O949        O  0.41882031  0.38225589  0.57977727    -0.55100
C950        C  0.41075481  0.38618913  0.65283392     0.85000
O951        O  0.32793641  0.35834953  0.61631680    -0.57000
O952        O  0.37605998  0.30867211  0.60025050    -0.60300
C953        C  0.33100288  0.20712723  0.83488189     0.80100
N954        N  0.33837276  0.21822460  0.86194682    -0.78200
C955        C  0.34449412  0.24962072  0.86854891     0.82500
N956        N  0.34258690  0.26911915  0.84833546    -0.78200
C957        C  0.33399532  0.25775817  0.82179594     0.82600
N958        N  0.32799043  0.22663092  0.81503410    -0.79900
C959        C  0.34568378  0.22048583  0.55123581     0.80100
N960        N  0.34994908  0.24414205  0.57027124    -0.78200
C961        C  0.34551217  0.26965995  0.56238512     0.82500
N962        N  0.33716629  0.27158411  0.53557442    -0.78200
C963        C  0.33405598  0.24895386  0.51629994     0.82600
N964        N  0.33886626  0.22364584  0.52401371    -0.79900
In965      In  0.34312762  0.29323438  0.94120121     1.36900
C966        C  0.33294772  0.25744395  0.48703843     0.77400
O967        O  0.32295522  0.24636528  0.91422795    -0.61000
O968        O  0.37171079  0.29090441  0.90504497    -0.51900
C969        C  0.30408678  0.30830796  0.91269918     0.70100
O970        O  0.33573386  0.32351492  0.90926609    -0.46800
C971        C  0.38528477  0.35105372  0.96871011     0.74800
O972        O  0.31220087  0.26503965  0.47838140    -0.58600
O973        O  0.39641886  0.34009424  0.95046479    -0.48700
O974        O  0.35648623  0.26392006  0.97027094    -0.55100
C975        C  0.34748728  0.26145109  0.89739161     0.85000
O976        O  0.29208804  0.28622517  0.93214330    -0.57000
O977        O  0.35345880  0.33378755  0.97116335    -0.60300
C978        C  0.23318747  0.31182878  0.88079519     0.80100
N979        N  0.24288006  0.31696887  0.85344378    -0.78200
C980        C  0.27324388  0.32183213  0.84636433     0.82500
N981        N  0.29315517  0.32048334  0.86630319    -0.78200
C982        C  0.28317206  0.31377354  0.89317461     0.82600
N983        N  0.25311881  0.30937885  0.90053783    -0.79900
C984        C  0.24123990  0.32801625  0.66604157     0.80100
N985        N  0.26510119  0.33336084  0.64705930    -0.78200
C986        C  0.28942312  0.32713566  0.65407619     0.82500
N987        N  0.29030057  0.31622754  0.68016887    -0.78200
C988        C  0.26780134  0.31225063  0.69964582     0.82600
N989        N  0.24341198  0.31859020  0.69273797    -0.79900
In990      In  0.31311860  0.31758383  0.77346379     1.36900
C991        C  0.27633986  0.30950654  0.72860080     0.77400
O992        O  0.26802014  0.29777666  0.80148299    -0.61000
O993        O  0.31226278  0.34774050  0.80890613    -0.51900
C994        C  0.32836001  0.27843407  0.80197708     0.70100
O995        O  0.34392947  0.31046466  0.80480899    -0.46800
C996        C  0.37035758  0.36069019  0.74666136     0.74800
O997        O  0.28310439  0.28758428  0.73606544    -0.58600
O998        O  0.36023285  0.37088905  0.76629138    -0.48700
O999        O  0.28426986  0.33297222  0.74604463    -0.55100
C1000       C  0.28360554  0.32341932  0.81747398     0.85000
O1001       O  0.30598237  0.26598968  0.78281109    -0.57000
O1002       O  0.35233786  0.32888930  0.74215463    -0.60300
C1003       C  0.77215811  0.10140360  0.83315390     0.80100
N1004       N  0.75220676  0.07758965  0.81359032    -0.78200
C1005       C  0.72064946  0.05090306  0.82019196     0.82500
N1006       N  0.70901653  0.04797144  0.84642628    -0.78200
C1007       C  0.72882615  0.07081883  0.86643133     0.82600
N1008       N  0.76087299  0.09732696  0.85996317    -0.79900
C1009       C  0.77174349  0.10020645  0.55019757     0.80100
N1010       N  0.76553922  0.09215529  0.52247583    -0.78200
C1011       C  0.73438308  0.06575982  0.01408614     0.82500
N1012       N  0.70982685  0.04758905  0.53291853    -0.78200
C1013       C  0.71536327  0.05529518  0.56032991     0.82600
N1014       N  0.74640143  0.08170248  0.56915951    -0.79900
In1015     In  0.69038264  0.02176613  0.94028286     1.36900
C1016       C  0.71764158  0.06068642  0.89534006     0.77400
O1017       O  0.70936451  0.06500982  0.97037951    -0.61000
O1018       O  0.72732837  0.03148902  0.97476165    -0.51900
C1019       C  0.63215387  0.99481989  0.96727324     0.70100
O1020       O  0.64067378  0.01760883  0.94861546    -0.46800
C1021       C  0.67997602  0.96731195  0.91363337     0.74800
O1022       O  0.68721259  0.04862271  0.90239114    -0.58600
O1023       O  0.70149859  0.98045179  0.93340715    -0.48700
O1024       O  0.73550245  0.05707366  0.91328444    -0.55100
C1025       C  0.72562337  0.05555050  0.98494142     0.85000
O1026       O  0.65234231  0.98500709  0.97069737    -0.57000
O1027       O  0.66307085  0.98069685  0.90916410    -0.60300
C1028       C  0.68288414  0.89552862  0.88358201     0.80100
N1029       N  0.67619352  0.89842208  0.85613635    -0.78200
C1030       C  0.66853798  0.92180571  0.84844216     0.82500
N1031       N  0.66856151  0.94263725  0.86785414    -0.78200
C1032       C  0.67665017  0.94112043  0.89479163     0.82600
N1033       N  0.68387670  0.91756146  0.90275973    -0.79900
C1034       C  0.66590957  0.88512422  0.66765163     0.80100
N1035       N  0.66011297  0.90280486  0.64782321    -0.78200
C1036       C  0.66332814  0.93281460  0.65452386     0.82500
N1037       N  0.67194400  0.94477710  0.68089262    -0.78200
C1038       C  0.67639854  0.92687416  0.70102002     0.82600
N1039       N  0.67292791  0.89665294  0.69454242    -0.79900
In1040     In  0.66632437  0.96315488  0.77410863     1.36900
C1041       C  0.66506828  0.92937167  0.81927982     0.77400
O1042       O  0.65450883  0.91864117  0.74709275    -0.61000
O1043       O  0.69750607  0.96849414  0.73722937    -0.51900
C1044       C  0.62189029  0.97106789  0.74577279     0.70100
O1045       O  0.61201860  0.94860808  0.76491574    -0.46800
C1046       C  0.70137444  0.02181193  0.80133953     0.74800
O1047       O  0.63930217  0.92930693  0.81075547    -0.58600
O1048       O  0.71507335  0.01404782  0.78282005    -0.48700
O1049       O  0.68998027  0.94284242  0.80277754    -0.55100
C1050       C  0.67754151  0.93761078  0.72982162     0.85000
O1051       O  0.65362800  0.98966352  0.74263712    -0.57000
O1052       O  0.66989853  0.00073780  0.80441178    -0.60300
C1053       C  0.55107315  0.97636004  0.71502680     0.80100
N1054       N  0.56114349  0.98273047  0.68773351    -0.78200
C1055       C  0.59034541  0.98538218  0.68004166     0.82500
N1056       N  0.60933869  0.98171790  0.69942774    -0.78200
C1057       C  0.59937661  0.97435131  0.72626431     0.82600
N1058       N  0.57006337  0.97134547  0.73411729    -0.79900
C1059       C  0.55163599  0.97683762  0.99811887     0.80100
N1060       N  0.55665102  0.97157473  0.52542835    -0.78200
C1061       C  0.58418068  0.97037528  0.53262246     0.82500
N1062       N  0.60711408  0.97567235  0.01277675    -0.78200
C1063       C  0.60336702  0.98298391  0.98607951     0.82600
N1064       N  0.57568563  0.98381763  0.97871619    -0.79900
In1065     In  0.63276259  0.98574217  0.60695138     1.36900
C1066       C  0.59455418  0.97125007  0.56171313     0.77400
O1067       O  0.58723155  0.96284667  0.63493050    -0.61000
O1068       O  0.62874219  0.01421361  0.64249097    -0.51900
C1069       C  0.65412895  0.95118599  0.63511738     0.70100
O1070       O  0.63098257  0.93671927  0.61671103    -0.46800
C1071       C  0.68814098  0.03193467  0.57940634     0.74800
O1072       O  0.60464073  0.95237879  0.57039433    -0.58600
O1073       O  0.67250892  0.00005720  0.57569184    -0.48700
O1074       O  0.60018130  0.99500897  0.57807474    -0.55100
C1075       C  0.60097047  0.98844383  0.65100894     0.85000
O1076       O  0.66704435  0.98292865  0.63768123    -0.57000
O1077       O  0.67649276  0.04111272  0.59861588    -0.60300
C1078       C  0.35440190  0.10433852  0.58212180     0.80100
N1079       N  0.34776318  0.08094496  0.56198379    -0.78200
C1080       C  0.34877816  0.05294174  0.56838174     0.82500
N1081       N  0.35585904  0.04818831  0.59487715    -0.78200
C1082       C  0.36112880  0.07048318  0.61530887     0.82600
N1083       N  0.35985163  0.09838944  0.60900128    -0.79900
C1084       C  0.32183755  0.08377985  0.79739533     0.80100
N1085       N  0.31468348  0.07287830  0.77033291    -0.78200
C1086       C  0.31116839  0.04274466  0.76321447     0.82500
N1087       N  0.31578011  0.02449763  0.78292669    -0.78200
C1088       C  0.32450452  0.03598696  0.80938915     0.82600
N1089       N  0.32776071  0.06576024  0.81663494    -0.79900
In1090     In  0.33398097  0.01920574  0.68916618     1.36900
C1091       C  0.35812833  0.05833701  0.64408554     0.77400
O1092       O  0.28938506  0.99440559  0.65969212    -0.61000
O1093       O  0.30019043  0.96173028  0.68223497    -0.51900
C1094       C  0.38222842  0.01510674  0.71556828     0.70100
O1095       O  0.36584623  0.99613523  0.69514593    -0.46800
C1096       C  0.31230488  0.03388970  0.73417948     0.74800
O1097       O  0.36591504  0.03707610  0.65087547    -0.58600
O1098       O  0.30211695  0.00350997  0.72739420    -0.48700
O1099       O  0.34215097  0.06330941  0.66236132    -0.55100
C1100       C  0.28348514  0.96467543  0.66282388     0.85000
O1101       O  0.37705659  0.03857858  0.71999223    -0.57000
O1102       O  0.32944267  0.05634971  0.71582321    -0.60300
C1103       C  0.22405301  0.88036184  0.62920785     0.80100
N1104       N  0.23413676  0.88858491  0.60205664    -0.78200
C1105       C  0.25868262  0.92142841  0.59509268     0.82500
N1106       N  0.27288896  0.94578139  0.61507970    -0.78200
C1107       C  0.26382604  0.93781724  0.64211644     0.82600
N1108       N  0.23961105  0.90499465  0.64930485    -0.79900
C1109       C  0.22330985  0.87932624  0.91696463     0.80100
N1110       N  0.24762130  0.89768031  0.89730597    -0.78200
C1111       C  0.27565427  0.92873615  0.90388975     0.82500
N1112       N  0.27924573  0.94130558  0.92989098    -0.78200
C1113       C  0.25602090  0.92303338  0.94984945     0.82600
N1114       N  0.22818186  0.89156440  0.94359220    -0.79900
In1115     In  0.30624165  0.96574791  0.52194295     1.36900
C1116       C  0.27117605  0.93196442  0.56657045     0.77400
O1117       O  0.34413524  0.00251517  0.55228591    -0.61000
O1118       O  0.31360946  0.01710278  0.53041316    -0.51900
C1119       C  0.36023123  0.97939522  0.49371724     0.70100
O1120       O  0.35012781  0.95910299  0.51453398    -0.46800
C1121       C  0.26632639  0.93518054  0.97852088     0.74800
O1122       O  0.29207674  0.92609944  0.55568006    -0.58600
O1123       O  0.27610868  0.96550372  0.98542572    -0.48700
O1124       O  0.26593571  0.95225605  0.55303263    -0.55100
C1125       C  0.33598934  0.02421251  0.54908707     0.85000
O1126       O  0.34372727  0.99287525  0.98852386    -0.57000
O1127       O  0.27303650  0.91899780  0.99599318    -0.60300
C1128       C  0.43768831  0.98873032  0.74771135     0.80100
N1129       N  0.42719634  0.98453069  0.77478208    -0.78200
C1130       C  0.40418064  0.99214979  0.78229476     0.82500
N1131       N  0.39152216  0.00375322  0.76285615    -0.78200
C1132       C  0.40068365  0.00697721  0.73580401     0.82600
N1133       N  0.42367344  0.99930842  0.72812133    -0.79900
C1134       C  0.43636145  0.98520767  0.96401577     0.80100
N1135       N  0.41290696  0.98147453  0.48307654    -0.78200
C1136       C  0.38741269  0.98555838  0.47495470     0.82500
N1137       N  0.38538950  0.99325929  0.94801463    -0.78200
C1138       C  0.40750539  0.99596162  0.92874992     0.82600
N1139       N  0.43284947  0.99142605  0.93659785    -0.79900
In1140     In  0.35990710  0.98753779  0.85571913     1.36900
C1141       C  0.39839495  0.99680992  0.89956472     0.77400
O1142       O  0.31191010  0.93576198  0.86528253    -0.61000
O1143       O  0.32381208  0.98047893  0.88796403    -0.51900
C1144       C  0.33551234  0.01869580  0.82801087     0.70100
O1145       O  0.32504330  0.98753284  0.82436708    -0.46800
C1146       C  0.39266114  0.98902994  0.81104152     0.74800
O1147       O  0.39411594  0.01997554  0.89049145    -0.58600
O1148       O  0.36901721  0.96080653  0.82144418    -0.48700
O1149       O  0.38710605  0.97096026  0.88393683    -0.55100
C1150       C  0.30392371  0.94857733  0.88460210     0.85000
O1151       O  0.35792999  0.03406811  0.84697453    -0.57000
O1152       O  0.40185119  0.01548292  0.82531171    -0.60300
C1153       C  0.46523705  0.98220773  0.97321670    -0.05500
C1154       C  0.48503984  0.00063258  0.49708627    -0.02600
C1155       C  0.51298248  0.99859810  0.50538348     0.02400
C1156       C  0.52136196  0.97791747  0.98999694    -0.05500
C1157       C  0.50118581  0.95935647  0.96655775    -0.02600
C1158       C  0.47331895  0.96152106  0.95820676     0.02400
C1159       C  0.47764574  0.02253388  0.51254883     0.37000
C1160       C  0.50829109  0.93701215  0.95147190     0.37000
C1161       C  0.45222887  0.94144194  0.93466908     0.35500
C1162       C  0.53393194  0.01858153  0.52902019     0.35500
N1163       N  0.43529754  0.92549208  0.91592902    -0.39400
N1164       N  0.55071540  0.03444914  0.54784891    -0.39400
N1165       N  0.51373109  0.91906384  0.93937796    -0.38800
N1166       N  0.47188835  0.04000247  0.52502527    -0.38800
C1167       C  0.52078396  0.97713083  0.72417828    -0.05500
C1168       C  0.52097254  0.99112398  0.75045440    -0.02600
C1169       C  0.49386425  0.99453713  0.75811027     0.02400
C1170       C  0.46561676  0.98357071  0.73992953    -0.05500
C1171       C  0.46493848  0.96881364  0.71401034    -0.02600
C1172       C  0.49221508  0.96566357  0.70619486     0.02400
C1173       C  0.54974520  0.00372817  0.76951650     0.37000
C1174       C  0.43588814  0.95626818  0.69528582     0.37000
C1175       C  0.49027510  0.94997039  0.67961320     0.35500
C1176       C  0.49633282  0.01129906  0.78428823     0.35500
N1177       N  0.48865275  0.93761384  0.65831817    -0.39400
N1178       N  0.49841915  0.02468798  0.80514458    -0.39400
N1179       N  0.41283614  0.94639502  0.68025935    -0.38800
N1180       N  0.57245188  0.01373180  0.78494312    -0.38800
C1181       C  0.35318380  0.13486455  0.57505384    -0.05500
C1182       C  0.37335245  0.15708713  0.55316463    -0.02600
C1183       C  0.37121518  0.18532997  0.54559138     0.02400
C1184       C  0.34904564  0.19168879  0.55997359    -0.05500
C1185       C  0.32940713  0.16989944  0.58227924    -0.02600
C1186       C  0.33137283  0.14150579  0.58972087     0.02400
C1187       C  0.39711279  0.15151714  0.53891422     0.37000
C1188       C  0.30606098  0.17578073  0.59689928     0.37000
C1189       C  0.30979391  0.11829616  0.61170105     0.35500
C1190       C  0.39256208  0.20839565  0.52345031     0.35500
N1191       N  0.29257118  0.09974183  0.62919349    -0.39400
N1192       N  0.40953871  0.22683597  0.50580570    -0.39400
N1193       N  0.28745293  0.18044312  0.60858942    -0.38800
N1194       N  0.41614701  0.14717153  0.52758963    -0.38800
C1195       C  0.32797343  0.17485597  0.82633863    -0.05500
C1196       C  0.35617382  0.17159966  0.82945503    -0.02600
C1197       C  0.35438205  0.14212787  0.81952436     0.02400
C1198       C  0.32448344  0.11578247  0.80609371    -0.05500
C1199       C  0.29637316  0.11912604  0.80274632    -0.02600
C1200       C  0.29810898  0.14855350  0.81281741     0.02400
C1201       C  0.38768372  0.19932770  0.84172708     0.37000
C1202       C  0.26516944  0.09165089  0.78988059     0.37000
C1203       C  0.26879362  0.15133716  0.80983207     0.35500
C1204       C  0.38375841  0.13939321  0.82246317     0.35500
N1205       N  0.24531015  0.15340025  0.80744176    -0.39400
N1206       N  0.40715562  0.13717821  0.82482435    -0.39400
N1207       N  0.24033399  0.06960670  0.77966290    -0.38800
N1208       N  0.41287346  0.22152683  0.85136775    -0.38800
C1209       C  0.48614202  0.46681479  0.99035792    -0.05500
C1210       C  0.48492754  0.48441737  0.96647385    -0.02600
C1211       C  0.51391378  0.51626354  0.95839834     0.02400
C1212       C  0.54444971  0.53113185  0.97424420    -0.05500
C1213       C  0.54594873  0.51351402  0.49805560    -0.02600
C1214       C  0.51701577  0.48155963  0.50607537     0.02400
C1215       C  0.45327004  0.47077892  0.95093833     0.37000
C1216       C  0.57723237  0.52800484  0.51425449     0.37000
C1217       C  0.51908035  0.46365647  0.53030839     0.35500
C1218       C  0.51158215  0.53445478  0.93447753     0.35500
N1219       N  0.52078368  0.44946734  0.54967421    -0.39400
N1220       N  0.50963455  0.54889033  0.91540537    -0.39400
N1221       N  0.60213938  0.53959853  0.52722862    -0.38800
N1222       N  0.42802533  0.45999831  0.93859610    -0.38800
C1223       C  0.48234326  0.46709448  0.72803737    -0.05500
C1224       C  0.50232839  0.46587040  0.74994568    -0.02600
C1225       C  0.53280235  0.49613922  0.75866688     0.02400
C1226       C  0.54352506  0.52789935  0.74563519    -0.05500
C1227       C  0.52334633  0.52916899  0.72396744    -0.02600
C1228       C  0.49299954  0.49894088  0.71517012     0.02400
C1229       C  0.49242602  0.43318485  0.76268382     0.37000
C1230       C  0.53340203  0.56182693  0.71106082     0.37000
C1231       C  0.47234369  0.50083852  0.69324088     0.35500
C1232       C  0.55395511  0.49428831  0.78013407     0.35500
N1233       N  0.45591512  0.50238259  0.67572741    -0.39400
N1234       N  0.57090870  0.49277071  0.79715663    -0.39400
N1235       N  0.54149512  0.58789990  0.70080325    -0.38800
N1236       N  0.48451281  0.40707240  0.77276289    -0.38800
C1237       C  0.69590439  0.81363521  0.91025092    -0.05500
C1238       C  0.66734671  0.80642105  0.89384179    -0.02600
C1239       C  0.66341684  0.83320977  0.88498849     0.02400
C1240       C  0.68761890  0.86753374  0.89276855    -0.05500
C1241       C  0.71532625  0.87459792  0.91028311    -0.02600
C1242       C  0.71950179  0.84780313  0.91888736     0.02400
C1243       C  0.64095032  0.77116462  0.88716376     0.37000
C1244       C  0.74008108  0.90955569  0.91896699     0.37000
C1245       C  0.74864187  0.85572284  0.93615834     0.35500
C1246       C  0.63341815  0.82502265  0.86882827     0.35500
N1247       N  0.77178149  0.86205915  0.95002683    -0.39400
N1248       N  0.60948551  0.81843955  0.85599606    -0.39400
N1249       N  0.75979714  0.93741695  0.92602581    -0.38800
N1250       N  0.61985121  0.74300250  0.88198079    -0.38800
C1251       C  0.66661032  0.79630225  0.64203485    -0.05500
C1252       C  0.69510059  0.82384078  0.65592774    -0.02600
C1253       C  0.69448924  0.85239492  0.66487556     0.02400
C1254       C  0.66551737  0.85395863  0.65969993    -0.05500
C1255       C  0.63703834  0.82647912  0.64569070    -0.02600
C1256       C  0.63757462  0.79777195  0.63690645     0.02400
C1257       C  0.72579545  0.82359455  0.65979068     0.37000
C1258       C  0.60674856  0.82726295  0.64101327     0.37000
C1259       C  0.60787778  0.76937775  0.62315149     0.35500
C1260       C  0.72435735  0.88083676  0.67843101     0.35500
N1261       N  0.58419141  0.74675381  0.61215361    -0.39400
N1262       N  0.74819634  0.90350506  0.68923410    -0.39400
N1263       N  0.58258607  0.82789749  0.63733768    -0.38800
N1264       N  0.75027739  0.82335743  0.66263161    -0.38800
C1265       C  0.13670379  0.78158573  0.65453332    -0.05500
C1266       C  0.16814496  0.79597847  0.66895581    -0.02600
C1267       C  0.19695083  0.82763556  0.66015016     0.02400
C1268       C  0.19473249  0.84535355  0.63681508    -0.05500
C1269       C  0.16353401  0.83054982  0.62194219    -0.02600
C1270       C  0.13468047  0.79904308  0.63083947     0.02400
C1271       C  0.17116398  0.77797142  0.69264568     0.37000
C1272       C  0.16043951  0.84847079  0.59818162     0.37000
C1273       C  0.10239406  0.78574167  0.61637843     0.35500
C1274       C  0.22916492  0.84157853  0.67482997     0.35500
N1275       N  0.07669263  0.77528557  0.60484535    -0.39400
N1276       N  0.25485033  0.85265117  0.68654202    -0.39400
N1277       N  0.15792537  0.86267053  0.57920587    -0.38800
N1278       N  0.17355813  0.76364659  0.71158115    -0.38800
C1279       C  0.19169466  0.84608570  0.90923935    -0.05500
C1280       C  0.15931084  0.83998237  0.91529501    -0.02600
C1281       C  0.12931331  0.80892030  0.90711579     0.02400
C1282       C  0.13140138  0.78388887  0.89241912    -0.05500
C1283       C  0.16377211  0.78996568  0.88644511    -0.02600
C1284       C  0.19371717  0.82082982  0.89482974     0.02400
C1285       C  0.15676400  0.86635117  0.92877598     0.37000
C1286       C  0.16636319  0.76388035  0.87245990     0.37000
C1287       C  0.22664630  0.82607461  0.88923532     0.35500
C1288       C  0.09631331  0.80331488  0.91301799     0.35500
N1289       N  0.25287150  0.83019966  0.88474129    -0.39400
N1290       N  0.07003304  0.79891996  0.91778109    -0.39400
N1291       N  0.16829138  0.74300488  0.86130915    -0.38800
N1292       N  0.15482948  0.88749496  0.93942226    -0.38800
C1293       C  0.86090328  0.64697448  0.55589929    -0.05500
C1294       C  0.82801082  0.62853403  0.54363218    -0.02600
C1295       C  0.80247424  0.63373931  0.55278254     0.02400
C1296       C  0.80945808  0.65726652  0.57442867    -0.05500
C1297       C  0.84231999  0.67562323  0.58671762    -0.02600
C1298       C  0.86788425  0.67066844  0.57743713     0.02400
C1299       C  0.82010277  0.60349312  0.52207789     0.37000
C1300       C  0.85045514  0.70097277  0.60809174     0.37000
C1301       C  0.90197754  0.69137572  0.58923548     0.35500
C1302       C  0.76870925  0.61424275  0.54030909     0.35500
N1303       N  0.92918226  0.70797175  0.59856893    -0.39400
N1304       N  0.74176124  0.59866009  0.53036770    -0.39400
N1305       N  0.85691592  0.72120986  0.62510125    -0.38800
N1306       N  0.81380273  0.58348365  0.50490151    -0.38800
C1307       C  0.86620344  0.64961929  0.82144012    -0.05500
C1308       C  0.86005063  0.67069232  0.83800323    -0.02600
C1309       C  0.83469237  0.67692669  0.83006518     0.02400
C1310       C  0.81497926  0.66199440  0.80553129    -0.05500
C1311       C  0.82146168  0.64128837  0.78875805    -0.02600
C1312       C  0.84681394  0.63503005  0.79672543     0.02400
C1313       C  0.88049686  0.68692335  0.86287809     0.37000
C1314       C  0.80132482  0.62535163  0.76369741     0.37000
C1315       C  0.85182366  0.61227460  0.77996624     0.35500
C1316       C  0.82987958  0.69986676  0.84675745     0.35500
N1317       N  0.85565847  0.59405587  0.76656217    -0.39400
N1318       N  0.82613278  0.71819231  0.86009557    -0.39400
N1319       N  0.78536025  0.61274180  0.74366002    -0.38800
N1320       N  0.89675201  0.69978682  0.88273992    -0.38800
C1321       C  0.00464889  0.45012825  0.73945896    -0.05500
C1322       C  0.98595679  0.45933403  0.75588919    -0.02600
C1323       C  0.98261591  0.48663550  0.74752058     0.02400
C1324       C  0.99810404  0.50524713  0.72269123    -0.05500
C1325       C  0.01676708  0.49607924  0.70623021    -0.02600
C1326       C  0.01990704  0.46858617  0.71447988     0.02400
C1327       C  0.96944890  0.44032255  0.78123896     0.37000
C1328       C  0.03437741  0.51610709  0.68154209     0.37000
C1329       C  0.04030123  0.46051566  0.69777967     0.35500
C1330       C  0.96258488  0.49505239  0.76437763     0.35500
N1331       N  0.05658427  0.45418891  0.68438220    -0.39400
N1332       N  0.94674428  0.50181556  0.77792061    -0.39400
N1333       N  0.04850316  0.53222865  0.66195240    -0.38800
N1334       N  0.95642918  0.42531329  0.80152863    -0.38800
C1335       C  0.00775918  0.45048129  0.97722108    -0.05500
C1336       C  0.03161063  0.47773154  0.49454540    -0.02600
C1337       C  0.02582139  0.50330479  0.50267030     0.02400
C1338       C  0.99618646  0.50213357  0.99352322    -0.05500
C1339       C  0.97231259  0.47467078  0.97631664    -0.02600
C1340       C  0.97792714  0.44883699  0.96843141     0.02400
C1341       C  0.06299660  0.48063042  0.50305555     0.37000
C1342       C  0.94159061  0.47256893  0.96703686     0.37000
C1343       C  0.95238229  0.41989093  0.95200687     0.35500
C1344       C  0.05149019  0.53205142  0.51925019     0.35500
N1345       N  0.93201863  0.39667833  0.93900200    -0.39400
N1346       N  0.07204433  0.55497172  0.53240172    -0.39400
N1347       N  0.91712712  0.47090900  0.95948718    -0.38800
N1348       N  0.08804114  0.48300457  0.50983247    -0.38800
C1349       C  0.80664073  0.13058405  0.82512723    -0.05500
C1350       C  0.81704797  0.16474040  0.83105014    -0.02600
C1351       C  0.84887541  0.19244618  0.82170536     0.02400
C1352       C  0.87068486  0.18628818  0.80634433    -0.05500
C1353       C  0.86022142  0.15208830  0.80041248    -0.02600
C1354       C  0.82843440  0.12442003  0.80978554     0.02400
C1355       C  0.79445502  0.17157178  0.84578422     0.37000
C1356       C  0.88262309  0.14508261  0.78555305     0.37000
C1357       C  0.81863149  0.08944627  0.80424925     0.35500
C1358       C  0.85862284  0.22740120  0.82719733     0.35500
N1359       N  0.81072130  0.06155182  0.79980521    -0.39400
N1360       N  0.86647320  0.25528718  0.83159456    -0.39400
N1361       N  0.90037807  0.13935245  0.77370638    -0.38800
N1362       N  0.77645826  0.17708397  0.85749030    -0.38800
C1363       C  0.80650337  0.12824818  0.55959608    -0.05500
C1364       C  0.82333435  0.12270353  0.58178507    -0.02600
C1365       C  0.85697541  0.14872061  0.58950095     0.02400
C1366       C  0.87428697  0.18059101  0.57511204    -0.05500
C1367       C  0.85751765  0.18604494  0.55286361    -0.02600
C1368       C  0.82367387  0.16027875  0.54549099     0.02400
C1369       C  0.80664838  0.08976721  0.59612549     0.37000
C1370       C  0.87481237  0.21817104  0.03776714     0.37000
C1371       C  0.80593949  0.16709676  0.02426890     0.35500
C1372       C  0.87439734  0.14188777  0.61135884     0.35500
N1373       N  0.79156320  0.17262287  0.00737402    -0.39400
N1374       N  0.88835234  0.13641611  0.62870051    -0.39400
N1375       N  0.88864403  0.24382003  0.02543306    -0.38800
N1376       N  0.79342199  0.06356346  0.60764687    -0.38800
C1377       C  0.20174414  0.31028656  0.88926926    -0.05500
C1378       C  0.17840593  0.28477026  0.90810733    -0.02600
C1379       C  0.14918785  0.28409696  0.91659654     0.02400
C1380       C  0.14303180  0.30916799  0.90660316    -0.05500
C1381       C  0.16647216  0.33467716  0.88772339    -0.02600
C1382       C  0.19561663  0.33531423  0.87927913     0.02400
C1383       C  0.18393385  0.25857540  0.91838899     0.37000
C1384       C  0.16142757  0.36120316  0.87742971     0.37000
C1385       C  0.22021817  0.36302006  0.86131744     0.35500
C1386       C  0.12481810  0.25661460  0.93480401     0.35500
N1387       N  0.23983298  0.38520105  0.84708379    -0.39400
N1388       N  0.10541231  0.23463507  0.94929589    -0.39400
N1389       N  0.15740120  0.38227385  0.86903763    -0.38800
N1390       N  0.18836687  0.23775310  0.92671232    -0.35200
C1391       C  0.15955150  0.34106866  0.64062209    -0.05500
C1392       C  0.17705851  0.35486056  0.66622825    -0.02600
C1393       C  0.20344239  0.35036823  0.67473467     0.02400
C1394       C  0.21322611  0.33271178  0.65742741    -0.05500
C1395       C  0.19625155  0.31967045  0.63148125    -0.02600
C1396       C  0.16966378  0.32384496  0.62313595     0.02400
C1397       C  0.16884669  0.37488836  0.68347528     0.37000
C1398       C  0.20493776  0.30044523  0.61367132     0.37000
C1399       C  0.15201447  0.30916258  0.59686212     0.35500
C1400       C  0.22091925  0.36466332  0.70111823     0.35500
N1401       N  0.13810559  0.29758283  0.57585041    -0.39400
N1402       N  0.23469215  0.37589989  0.72223785    -0.39400
N1403       N  0.21179016  0.28515483  0.59937639    -0.38800
N1404       N  0.16242164  0.39099527  0.69716110    -0.38800
loop_ 
_geom_bond_atom_site_label_1 
_geom_bond_atom_site_label_2 
_geom_bond_distance 
_geom_bond_site_symmetry_2 
_ccdc_geom_bond_type 
C1            N2   1.362       .  A
C1            N6   1.364       .  A
C1          C689   1.491       .  S
N2            C3   1.355       .  A
C3            N4   1.353       .  A
C3           C42   1.462       .  S
N4            C5   1.353       .  A
C5            N6   1.359       .  A
C5           C14   1.466       .  S
C7            N8   1.365       .  A
C7           N12   1.369       .  A
C7          C678   1.499       .  S
N8            C9   1.355       .  A
C9           N10   1.350       .  A
C9           C67   1.462       .  S
N10          C11   1.351       .  A
C11          N12   1.362       .  A
C11          C19   1.468       .  S
In13         O15   2.249       .  S
In13         O16   2.273   1_455  S
In13         O18   2.263       .  S
In13         O20   2.235       .  S
In13         O22   2.254       .  S
In13        O726   2.246   1_554  S
In13        O723   2.231   1_554  S
In13        O727   2.272   1_554  S
C14          O20   1.262       .  A
C14          O22   1.262       .  A
O15          C23   1.258   1_455  A
O16          C23   1.260       .  A
C17          C53   1.464       .  S
C17          O18   1.259   1_556  A
C17         O726   1.258       .  A
C19          O21   1.261       .  A
C19          O25   1.261       .  A
O21        In715   2.231       .  S
C23          C28   1.470       .  S
O24        In715   2.246       .  S
O24         C719   1.258       .  A
O25        In715   2.272       .  S
C26          N27   1.366       .  A
C26          N31   1.366       .  A
C26         C664   1.494       .  S
N27          C28   1.360       .  A
C28          N29   1.354       .  A
N29          C30   1.354       .  A
C30          N31   1.358       .  A
C30          C44   1.466       .  S
C32          N33   1.362       .  A
C32          N37   1.368       .  A
C32         C650   1.489       .  S
N33          C34   1.353       .  A
C34          N35   1.353       .  A
C34          C73   1.461       .  S
N35          C36   1.352       .  A
C36          N37   1.361       .  A
C36          C39   1.466       .  S
In38         O40   2.196   1_655  S
In38         O41   2.269       .  S
In38         O49   2.207   1_655  S
In38         O43   2.248   1_655  S
In38         O45   2.234       .  S
In38         O46   2.246       .  S
In38         O47   2.243       .  S
In38         O50   2.226       .  S
C39          O45   1.267       .  A
C39          O47   1.264       .  A
O40          C48   1.259       .  A
O41          C48   1.271   1_655  A
C42          O49   1.263       .  A
C42          O43   1.270       .  A
C44          O46   1.270       .  A
C44          O50   1.265       .  A
C48          C59   1.464       .  S
C51          N56   1.367       .  A
C51         N754   1.365       .  A
C51         C633   1.493       .  S
N52          C53   1.357       .  A
N52         C753   1.365       .  A
C53         N756   1.353       .  A
N54          C55   1.354       .  A
N54         C755   1.353       .  A
C55          N56   1.360       .  A
C55          C69   1.467       .  S
C57          N58   1.364       .  A
C57          N62   1.366       .  A
C57         C619   1.490       .  S
N58          C59   1.356       .  A
C59          N60   1.353       .  A
N60          C61   1.352       .  A
C61          N62   1.358       .  A
C61          C64   1.464       .  S
In63         O65   2.198       .  S
In63         O66   2.263   1_455  S
In63         O74   2.258       .  S
In63         O68   2.203       .  S
In63         O70   2.234       .  S
In63         O71   2.249   1_455  S
In63         O72   2.241       .  S
In63         O75   2.232       .  S
C64          O70   1.266       .  A
C64          O72   1.264       .  A
O65          C73   1.259   1_455  A
O66          C73   1.270       .  A
C67          O74   1.269       .  A
C67          O68   1.262       .  A
C69          O71   1.268   1_455  A
C69          O75   1.265       .  A
C76          N77   1.365       .  A
C76          N81   1.363       .  A
C76         C605   1.489       .  S
N77          C78   1.358       .  A
C78          N79   1.352       .  A
C78          C89   1.463       .  S
N79          C80   1.353       .  A
C80          N81   1.356       .  A
C80         C119   1.462       .  S
C82          N83   1.370       .  A
C82          N87   1.367       .  A
C82         C591   1.496       .  S
N83          C84   1.363       .  A
C84          N85   1.349       .  A
C84         C800   1.464   1_554  S
N85          C86   1.349       .  A
C86          N87   1.357       .  A
C86         C142   1.464       .  S
In88         O90   2.253       .  S
In88         O91   2.234       .  S
In88         O99   2.286       .  S
In88         O93   2.210       .  S
In88         O95   2.239       .  S
In88         O96   2.216   1_655  S
In88         O97   2.247       .  S
In88        O100   2.277   1_655  S
C89          O95   1.263       .  A
C89          O97   1.262       .  A
O90          C98   1.264       .  A
O91          C98   1.264       .  A
C92         C130   1.465       .  S
C92          O99   1.265       .  A
C92          O93   1.258       .  A
C94         C103   1.464       .  S
C94          O96   1.257       .  A
C94         O100   1.264       .  A
C98         C786   1.464       .  S
C101        N102   1.366       .  A
C101        N106   1.366       .  A
C101        C580   1.489       .  S
N102        C103   1.359       .  A
C103        N104   1.352       .  A
N104        C105   1.351       .  A
C105        N106   1.357       .  A
C105        C114   1.462       .  S
C107        N108   1.366       .  A
C107        N112   1.369       .  A
C107        C563   1.496       .  S
N108        C109   1.357       .  A
C109        N110   1.351       .  A
C109        C144   1.464       .  S
N110        C111   1.350       .  A
C111        N112   1.360       .  A
C111        C123   1.465       .  S
In113       O115   2.250       .  S
In113       O116   2.232       .  S
In113       O124   2.200   1_455  S
In113       O118   2.261       .  S
In113       O120   2.234       .  S
In113       O121   2.263   1_455  S
In113       O122   2.242       .  S
In113       O125   2.210   1_455  S
C114        O120   1.265       .  A
C114        O122   1.263       .  A
O115        C123   1.265       .  A
O116        C123   1.265       .  A
C117        C134   1.459   1_455  S
C117        O124   1.259   1_455  A
C117        O118   1.267       .  A
C119        O121   1.267       .  A
C119        O125   1.259       .  A
C126        N131   1.369       .  A
C126        N829   1.368       .  A
C126        C636   1.495       .  S
N127        C128   1.358       .  A
N127        C828   1.368       .  A
C128        N831   1.347       .  A
C128        C148   1.457       .  S
N129        C130   1.348       .  A
N129        C830   1.347       .  A
C130        N131   1.361       .  A
C132        N133   1.362   1_655  A
C132        N137   1.366       .  A
C132        C622   1.487       .  S
N133        C134   1.354   1_455  A
C134        N135   1.351       .  A
N135        C136   1.351       .  A
C136        N137   1.358       .  A
C136        C139   1.459       .  S
In138       O140   2.235       .  S
In138       O141   2.230   1_655  S
In138       O149   2.275       .  S
In138       O143   2.215       .  S
In138       O145   2.228       .  S
In138       O146   2.210   1_655  S
In138       O147   2.239   1_655  S
In138       O150   2.276   1_655  S
C139        O145   1.264       .  A
C139        O147   1.263   1_655  A
O140        C148   1.263       .  A
O141        C148   1.265   1_455  A
C142        O149   1.265       .  A
C142        O143   1.258       .  A
C144        O146   1.257       .  A
C144        O150   1.265       .  A
C151        N152   1.365       .  A
C151        N156   1.366       .  A
C151        C549   1.489       .  S
N152        C153   1.357       .  A
C153        N154   1.350       .  A
C153        C217   1.463       .  S
N154        C155   1.351       .  A
C155        N156   1.361       .  A
C155        C169   1.463       .  S
C157        N158   1.362       .  A
C157        N162   1.365       .  A
C157        C535   1.495       .  S
N158        C159   1.356       .  A
C159        N160   1.353       .  A
C159        C192   1.465       .  S
N160        C161   1.354       .  A
C161        N162   1.360       .  A
C161        C164   1.465       .  S
In163       O166   2.234   1_554  S
In163       O174   2.239       .  S
In163       O168   2.271       .  S
In163       O171   2.232       .  S
In163       O175   2.258       .  S
In163       O867   2.269       .  S
In163       O872   2.237   1_554  S
In163       O874   2.251   1_554  S
C164        O170   1.262       .  A
C164        O172   1.260       .  A
O165       In865   2.269       .  S
O165        C173   1.259       .  A
O166        C875   1.257       .  A
C167        C205   1.464       .  S
C167        O174   1.258       .  A
C167        O168   1.258       .  A
C169        O171   1.262       .  A
C169        O175   1.261       .  A
O170       In865   2.237       .  S
O172       In865   2.251       .  S
C173        C184   1.461       .  S
C173        O868   1.257       .  A
C176        N177   1.369       .  A
C176        N181   1.365       .  A
C176        C524   1.489       .  S
N177        C178   1.362       .  A
C178        N179   1.349       .  A
C178        C189   1.464       .  S
N179        C180   1.350       .  A
C180        N181   1.356       .  A
C180        C223   1.463       .  S
C182        N187   1.367       .  A
C182        N885   1.365       .  A
C182        C510   1.491       .  S
N183        C884   1.366       .  A
N183        C886   1.357       .  A
C184        N185   1.351       .  A
C184        N885   1.357       .  A
N185        C186   1.350       .  A
C186        N187   1.358       .  A
C186        C194   1.461       .  S
In188       O190   2.267       .  S
In188       O191   2.198       .  S
In188       O199   2.254       .  S
In188       O193   2.216       .  S
In188       O195   2.232       .  S
In188       O196   2.242       .  S
In188       O197   2.246       .  S
In188       O200   2.221       .  S
C189        O195   1.267       .  A
C189        O197   1.264       .  A
O190        C198   1.270       .  A
O191        C198   1.260       .  A
C192        O199   1.269       .  A
C192        O193   1.262       .  A
C194        O196   1.269       .  A
C194        O200   1.264       .  A
C198        C209   1.464       .  S
C201        N202   1.370       .  A
C201        N206   1.366       .  A
C201        C594   1.494       .  S
N202        C203   1.361       .  A
C203        N204   1.350       .  A
C203        C219   1.467       .  S
N204        C205   1.351       .  A
C205        N206   1.359       .  A
C207        N208   1.364       .  A
C207        N212   1.366       .  A
C207        C608   1.491       .  S
N208        C209   1.356       .  A
C209        N210   1.353       .  A
N210        C211   1.352       .  A
C211        N212   1.359       .  A
C211        C214   1.464       .  S
In213       O215   2.277       .  S
In213       O216   2.194       .  S
In213       O224   2.261       .  S
In213       O218   2.209       .  S
In213       O220   2.235       .  S
In213       O221   2.258       .  S
In213       O222   2.243       .  S
In213       O225   2.227       .  S
C214        O220   1.265       .  A
C214        O222   1.263       .  A
O215        C223   1.269       .  A
O216        C223   1.258       .  A
C217        O224   1.268       .  A
C217        O218   1.262       .  A
C219        O221   1.268       .  A
C219        O225   1.264       .  A
C226        N227   1.367       .  A
C226        N933   1.366       .  A
C226        C507   1.492       .  S
N227        C228   1.358       .  A
C228        N931   1.353       .  A
C228        C269   1.468       .  S
N229        C230   1.351       .  A
N229        C930   1.353   1_554  A
C230        N231   1.357       .  A
C230        C239   1.462       .  S
N231        C928   1.366   1_554  A
C232        N233   1.368       .  A
C232        N237   1.366       .  A
C232        C521   1.490       .  S
N233        C234   1.359       .  A
C234        N235   1.350       .  A
C234        C248   1.462       .  S
N235        C236   1.350       .  A
C236        N237   1.358       .  A
C236        C294   1.464       .  S
In238       O240   2.246       .  S
In238       O241   2.230       .  S
In238       O249   2.261       .  S
In238       O243   2.207       .  S
In238       O245   2.236       .  S
In238       O246   2.212       .  S
In238       O247   2.239       .  S
In238       O250   2.262       .  S
C239        O245   1.265       .  A
C239        O247   1.263       .  A
O240        C248   1.264       .  A
O241        C248   1.265       .  A
C242        C284   1.461       .  S
C242        O249   1.267       .  A
C242        O243   1.259       .  A
C244        C259   1.462       .  S
C244        O246   1.259       .  A
C244        O250   1.266       .  A
C251        N252   1.369       .  A
C251        N256   1.362       .  A
C251        C493   1.486       .  S
N252        C253   1.363       .  A
C253        N254   1.352       .  A
C253        C273   1.470       .  S
N254        C255   1.352       .  A
C255        N256   1.355       .  A
C255        C292   1.461       .  S
C257        N258   1.363       .  A
C257        N262   1.363       .  A
C257        C482   1.482       .  S
N258        C259   1.356       .  A
C259        N260   1.353       .  A
N260        C261   1.352       .  A
C261        N262   1.356       .  A
C261        C264   1.459   1_554  S
In263       O265   2.256       .  S
In263       O266   2.243       .  S
In263       O274   2.263       .  S
In263       O268   2.212       .  S
In263       O271   2.289       .  S
In263       O272   2.243       .  S
In263       O275   2.211       .  S
In263       O972   2.223       .  S
C264        O270   1.263       .  A
C264        O974   1.264       .  A
O265        C273   1.264       .  A
O266        C273   1.266       .  A
C267        C280   1.461       .  S
C267        O274   1.264       .  A
C267        O268   1.259       .  A
C269        O271   1.267       .  A
C269        O275   1.256       .  A
O270       In965   2.223       .  S
O272        C966   1.264       .  A
C276        N277   1.368       .  A
C276        N281   1.365       .  A
C276        C675   1.495       .  S
N277        C278   1.359       .  A
C278        N279   1.349       .  A
C278        C298   1.461       .  S
N279        C280   1.350       .  A
C280        N281   1.358       .  A
C282        N283   1.363       .  A
C282        N287   1.367       .  A
C282        C692   1.492       .  S
N283        C284   1.354       .  A
C284        N285   1.351       .  A
N285        C286   1.351       .  A
C286        N287   1.360       .  A
C286        C289   1.461       .  S
In288       O290   2.245       .  S
In288       O291   2.227       .  S
In288       O299   2.269       .  S
In288       O293   2.210       .  S
In288       O295   2.232       .  S
In288       O296   2.272       .  S
In288       O297   2.243       .  S
In288       O300   2.215       .  S
C289        O295   1.264       .  A
C289        O297   1.263       .  A
O290        C298   1.264       .  A
O291        C298   1.264       .  A
C292        O299   1.265       .  A
C292        O293   1.257       .  A
C294        O296   1.265       .  A
C294        O300   1.258       .  A
C301        N302   1.360       .  A
C301        N306   1.367       .  A
C301        C647   1.488       .  S
N302        C303   1.352       .  A
C303        N304   1.352       .  A
C303        C344   1.461       .  S
N304        C305   1.354       .  A
C305        N306   1.362       .  A
C305        C314   1.466       .  S
C307        N308   1.368       .  A
C307        N312   1.369       .  A
C307        C661   1.494       .  S
N308       C1011   1.357       .  A
C309       N1010   1.357       .  A
C309       N1012   1.348       .  A
C309        C323   1.460       .  S
N310        C311   1.349       .  A
N310       C1011   1.348       .  A
C311        N312   1.360       .  A
C311        C369   1.463       .  S
In313       O315   2.233       .  S
In313       O316   2.238       .  S
In313       O324   2.216   1_545  S
In313       O318   2.267       .  S
In313       O320   2.238       .  S
In313       O321   2.270   1_545  S
In313       O322   2.254       .  S
In313       O325   2.204   1_545  S
C314        O320   1.264       .  A
C314        O322   1.262       .  A
O315        C323   1.264       .  A
O316        C323   1.265       .  A
C317        C361   1.465       .  S
C317        O324   1.260       .  A
C317        O318   1.266   1_565  A
C319        C330   1.460       .  S
C319        O321   1.266       .  A
C319        O325   1.258       .  A
C326        N327   1.369       .  A
C326        N331   1.364       .  A
C326        C538   1.494       .  S
N327        C328   1.359       .  A
C328        N329   1.349       .  A
C328        C339   1.464       .  S
N329        C330   1.351       .  A
C330        N331   1.357       .  A
C332        N333   1.365       .  A
C332        N337   1.367       .  A
C332        C552   1.489       .  S
N333        C334   1.358       .  A
C334        N335   1.351       .  A
C334        C367   1.463       .  S
N335        C336   1.351       .  A
C336        N337   1.360       .  A
C336        C348   1.463       .  S
In338       O340   2.247       .  S
In338       O341   2.232       .  S
In338       O349   2.204       .  S
In338       O343   2.284       .  S
In338       O345   2.232       .  S
In338       O346   2.257   1_565  S
In338       O347   2.248       .  S
In338       O350   2.217   1_565  S
C339        O345   1.266       .  A
C339        O347   1.263       .  A
O340        C348   1.264       .  A
O341        C348   1.264       .  A
C342        C355   1.466       .  S
C342        O349   1.258       .  A
C342        O343   1.267       .  A
C344        O346   1.266       .  A
C344        O350   1.258       .  A
C351        N352   1.370       .  A
C351        N356   1.370       .  A
C351        C465   1.508       .  S
N352        C353   1.360       .  A
C353        N354   1.348       .  A
C353        C373   1.463       .  S
N354        C355   1.349       .  A
C355        N356   1.359       .  A
C357        N362   1.364       .  A
C357       N1060   1.366       .  A
C357        C454   1.490       .  S
N358        C359   1.358       .  A
N358       C1059   1.366   1_554  A
C359       N1062   1.352       .  A
C359        C364   1.463       .  S
N360        C361   1.352       .  A
N360       C1061   1.352       .  A
C361        N362   1.358       .  A
In363       O365   2.248       .  S
In363       O366   2.239   1_565  S
In363       O374   2.215       .  S
In363       O368   2.272       .  S
In363       O370   2.232       .  S
In363       O371   2.204       .  S
In363       O372   2.249       .  S
In363       O375   2.286   1_565  S
C364        O370   1.263       .  A
C364        O372   1.264       .  A
O365        C373   1.263       .  A
O366        C373   1.264   1_545  A
C367        O374   1.258       .  A
C367        O368   1.264       .  A
C369        O371   1.257   1_545  A
C369        O375   1.265       .  A
C376        N377   1.362       .  A
C376        N381   1.363       .  A
C376        C479   1.482       .  S
N377        C378   1.356       .  A
C378        N379   1.353       .  A
C378        C423   1.462       .  S
N379        C380   1.352       .  A
C380        N381   1.358       .  A
C380        C389   1.462       .  S
C382        N383   1.367       .  A
C382        N387   1.360       .  A
C382        C496   1.485       .  S
N383        C384   1.362       .  A
C384        N385   1.352       .  A
C384        C394   1.465       .  S
N385        C386   1.350       .  A
C386        N387   1.353       .  A
C386        C442   1.456       .  S
In388       O390   2.240   1_545  S
In388       O391   2.267   1_545  S
In388       O399   2.243       .  S
In388       O393   2.272   1_545  S
In388       O395   2.231       .  S
In388       O396   2.230       .  S
In388       O397   2.253       .  S
In388       O400   2.259       .  S
C389        O395   1.261       .  A
C389        O397   1.261       .  A
O390        C398   1.258       .  A
O391        C398   1.259       .  A
C392        C430   1.466       .  S
C392        O399   1.258       .  A
C392        O393   1.259   1_545  A
C394        O396   1.263       .  A
C394        O400   1.261       .  A
C398        C405   1.463       .  S
C401        N402   1.367       .  A
C401        N406   1.366       .  A
C401        C566   1.493       .  S
N402        C403   1.359       .  A
C403        N404   1.352       .  A
C403        C414   1.464       .  S
N404        C405   1.352       .  A
C405        N406   1.358       .  A
C407        N408   1.365       .  A
C407        N412   1.368       .  A
C407        C577   1.491       .  S
N408        C409   1.357       .  A
C409        N410   1.351       .  A
C409        C448   1.464       .  S
N410        C411   1.350       .  A
C411        N412   1.360       .  A
C411        C419   1.463       .  S
In413       O415   2.206   1_565  S
In413       O416   2.255   1_565  S
In413       O418   2.268       .  S
In413       O420   2.251       .  S
In413       O422   2.223       .  S
In413      O1126   2.198   1_554  S
In413      O1123   2.236   1_554  S
In413      O1127   2.242   1_554  S
C414        O420   1.269       .  A
C414        O422   1.264       .  A
O415        C423   1.262       .  A
O416        C423   1.269       .  A
C417        C434   1.462       .  S
C417        O418   1.269   1_556  A
C417       O1126   1.259       .  A
C419        O421   1.266       .  A
C419        O425   1.263       .  A
O421      In1115   2.236       .  S
O424      In1115   2.198       .  S
O424       C1119   1.259       .  A
O425      In1115   2.242       .  S
C426        N427   1.367       .  A
C426        N431   1.368       .  A
C426        C468   1.503       .  S
N427        C428   1.357       .  A
C428        N429   1.351   1_565  A
C428        C444   1.463       .  S
N429        C430   1.352       .  A
C430        N431   1.360   1_545  A
C432        N437   1.368       .  A
C432       N1135   1.365       .  A
C432        C451   1.491       .  S
N433        C434   1.356       .  A
N433       C1134   1.364       .  A
C434       N1137   1.351       .  A
N435        C436   1.350       .  A
N435       C1136   1.351       .  A
C436        N437   1.359       .  A
C436        C439   1.462       .  S
In438       O440   2.272       .  S
In438       O441   2.193       .  S
In438       O449   2.243   1_565  S
In438       O443   2.201       .  S
In438       O445   2.229   1_565  S
In438       O446   2.250       .  S
In438       O447   2.241       .  S
In438       O450   2.219   1_565  S
C439        O445   1.266   1_565  A
C439        O447   1.265       .  A
O440        C448   1.271       .  A
O441        C448   1.259       .  A
C442        O449   1.269       .  A
C442        O443   1.262   1_545  A
C444        O446   1.269       .  A
C444        O450   1.263   1_565  A
C451        C456   1.414       .  A
C451       C1154   1.417   1_565  A
C452        C453   1.412   1_546  A
C452       C1153   1.417   1_545  A
C452        C457   1.452   1_556  S
C453       C1156   1.414   1_554  A
C453        C460   1.452   1_565  S
C454        C455   1.415       .  A
C454       C1155   1.413       .  A
C455        C456   1.413       .  A
C455        C458   1.451       .  S
C456        C459   1.452       .  S
C457        N464   1.157       .  T
C458        N463   1.157       .  T
C459        N461   1.157       .  T
C460        N462   1.157       .  T
C465        C466   1.421       .  A
C465        C470   1.420       .  A
C466        C467   1.414       .  A
C466        C471   1.453   1_565  S
C467        C468   1.418       .  A
C467        C474   1.453   1_565  S
C468        C469   1.417       .  A
C469        C470   1.417       .  A
C469        C472   1.452       .  S
C470        C473   1.452       .  S
C471        N478   1.158       .  T
C472        N477   1.158       .  T
C473        N475   1.157       .  T
C474        N476   1.158       .  T
C479        C480   1.413       .  A
C479        C484   1.413       .  A
C480        C481   1.409       .  A
C480        C485   1.451       .  S
C481        C482   1.413       .  A
C481        C488   1.452       .  S
C482        C483   1.414       .  A
C483        C484   1.410       .  A
C483        C486   1.452       .  S
C484        C487   1.452       .  S
C485        N492   1.157       .  T
C486        N491   1.157       .  T
C487        N489   1.157       .  T
C488        N490   1.157       .  T
C493        C494   1.413       .  A
C493        C498   1.414       .  A
C494        C495   1.411       .  A
C494        C499   1.451       .  S
C495        C496   1.414       .  A
C495        C502   1.452       .  S
C496        C497   1.412       .  A
C497        C498   1.413       .  A
C497        C500   1.451       .  S
C498        C501   1.450       .  S
C499        N506   1.157       .  T
C500        N505   1.157       .  T
C501        N503   1.157       .  T
C502        N504   1.157       .  T
C507        C508   1.416       .  A
C507       C1214   1.415       .  A
C508        C509   1.412       .  A
C508        C513   1.452       .  S
C509        C510   1.415       .  A
C509        C516   1.452       .  S
C510       C1213   1.415       .  A
C511        C512   1.413   1_556  A
C511       C1212   1.415       .  A
C511        C514   1.451   1_556  S
C512       C1209   1.415   1_554  A
C512        C515   1.451       .  S
C513        N520   1.157       .  T
C514        N519   1.157       .  T
C515        N517   1.157       .  T
C516        N518   1.157       .  T
C521        C522   1.417       .  A
C521        C526   1.412       .  A
C522        C523   1.414       .  A
C522        C527   1.451       .  S
C523        C524   1.412       .  A
C523        C530   1.451       .  S
C524        C525   1.415       .  A
C525        C526   1.412       .  A
C525        C528   1.452       .  S
C526        C529   1.451       .  S
C527        N534   1.157       .  T
C528        N533   1.157       .  T
C529        N531   1.157       .  T
C530        N532   1.157       .  T
C535        C536   1.417       .  A
C535        C540   1.416       .  A
C536        C537   1.411       .  A
C536        C541   1.452       .  S
C537        C538   1.414       .  A
C537        C544   1.453       .  S
C538        C539   1.417       .  A
C539        C540   1.415       .  A
C539        C542   1.451       .  S
C540        C543   1.452       .  S
C541        N548   1.158       .  T
C542        N547   1.158       .  T
C543        N545   1.157       .  T
C544        N546   1.157       .  T
C549        C550   1.413       .  A
C549        C554   1.414       .  A
C550        C551   1.412       .  A
C550        C555   1.451       .  S
C551        C552   1.414       .  A
C551        C558   1.451       .  S
C552        C553   1.414       .  A
C553        C554   1.414       .  A
C553        C556   1.451       .  S
C554        C557   1.451       .  S
C555        N562   1.157       .  T
C556        N561   1.157       .  T
C557        N559   1.157       .  T
C558        N560   1.157       .  T
C563        C564   1.415       .  A
C563        C568   1.418       .  A
C564        C565   1.414       .  A
C564        C569   1.451       .  S
C565        C566   1.415       .  A
C565        C572   1.451       .  S
C566        C567   1.415       .  A
C567        C568   1.413       .  A
C567        C570   1.452       .  S
C568        C571   1.452       .  S
C569        N576   1.157       .  T
C570        N575   1.158       .  T
C571        N573   1.158       .  T
C572        N574   1.157       .  T
C577        C578   1.416       .  A
C577        C582   1.414       .  A
C578        C579   1.414       .  A
C578        C583   1.451       .  S
C579        C580   1.413       .  A
C579        C586   1.451       .  S
C580        C581   1.415       .  A
C581        C582   1.411       .  A
C581        C584   1.452       .  S
C582        C585   1.452       .  S
C583        N590   1.157       .  T
C584        N589   1.157       .  T
C585        N587   1.157       .  T
C586        N588   1.157       .  T
C591        C592   1.414       .  A
C591        C596   1.416       .  A
C592        C593   1.417       .  A
C592        C597   1.450       .  S
C593        C594   1.415       .  A
C593        C600   1.450       .  S
C594        C595   1.414       .  A
C595        C596   1.413       .  A
C595        C598   1.452       .  S
C596        C599   1.452       .  S
C597        N604   1.157       .  T
C598        N603   1.157       .  T
C599        N601   1.157       .  T
C600        N602   1.157       .  T
C605        C606   1.413       .  A
C605        C610   1.416       .  A
C606        C607   1.411       .  A
C606        C611   1.452       .  S
C607        C608   1.416       .  A
C607        C614   1.452       .  S
C608        C609   1.415       .  A
C609        C610   1.412       .  A
C609        C612   1.452       .  S
C610        C613   1.452       .  S
C611        N618   1.157       .  T
C612        N617   1.157       .  T
C613        N615   1.157       .  T
C614        N616   1.157       .  T
C619        C620   1.414   1_455  A
C619        C624   1.417       .  A
C620        C621   1.410       .  A
C620        C625   1.452       .  S
C621        C622   1.416       .  A
C621        C628   1.452       .  S
C622        C623   1.413   1_655  A
C623        C624   1.411       .  A
C623        C626   1.452       .  S
C624        C627   1.452       .  S
C625        N632   1.157       .  T
C626        N631   1.157       .  T
C627        N629   1.157       .  T
C628        N630   1.157       .  T
C633        C638   1.414   1_455  A
C633       C1336   1.415       .  A
C634        C635   1.412   1_556  A
C634       C1335   1.415       .  A
C634        C639   1.452   1_556  S
C635       C1338   1.416   1_454  A
C635        C642   1.452       .  S
C636        C637   1.415       .  A
C636       C1337   1.416   1_655  A
C637        C638   1.415       .  A
C637        C640   1.450       .  S
C638        C641   1.451       .  S
C639        N646   1.157       .  T
C640        N645   1.157       .  T
C641        N643   1.157       .  T
C642        N644   1.157       .  T
C647        C648   1.413       .  A
C647        C652   1.416       .  A
C648        C649   1.412       .  A
C648        C653   1.451       .  S
C649        C650   1.417       .  A
C649        C656   1.452       .  S
C650        C651   1.414       .  A
C651        C652   1.411       .  A
C651        C654   1.452       .  S
C652        C655   1.452       .  S
C653        N660   1.157       .  T
C654        N659   1.157       .  T
C655        N657   1.157       .  T
C656        N658   1.157       .  T
C661        C662   1.416       .  A
C661        C666   1.415       .  A
C662        C663   1.414       .  A
C662        C667   1.452       .  S
C663        C664   1.416       .  A
C663        C670   1.452       .  S
C664        C665   1.414       .  A
C665        C666   1.413       .  A
C665       C1370   1.451       .  S
C666       C1371   1.451       .  S
C667        N674   1.158       .  T
C668       C1367   1.451       .  S
C668        N673   1.157       .  T
C669       C1368   1.451       .  S
C669        N671   1.157       .  T
C670        N672   1.157       .  T
C675        C676   1.415       .  A
C675        C680   1.415       .  A
C676        C677   1.415       .  A
C676        C681   1.452       .  S
C677        C678   1.417       .  A
C677        C684   1.451       .  S
C678        C679   1.418       .  A
C679        C680   1.412       .  A
C679        C682   1.452       .  S
C680        C683   1.452       .  S
C681        N688   1.157       .  T
C682        N687   1.157       .  T
C683        N685   1.157       .  T
C684        N686   1.157       .  T
C689        C690   1.416       .  A
C689        C694   1.415       .  A
C690        C691   1.413       .  A
C690        C695   1.452       .  S
C691        C692   1.415       .  A
C691        C698   1.452       .  S
C692        C693   1.418       .  A
C693        C694   1.411       .  A
C693        C696   1.453       .  S
C694        C697   1.453       .  S
C695        N702   1.157       .  T
C696        N701   1.157       .  T
C697        N699   1.157       .  T
C698        N700   1.157       .  T
C703        N704   1.362       .  A
C703        N708   1.364       .  A
C703       C1391   1.492       .  S
N704        C705   1.355       .  A
C705        N706   1.353       .  A
C705        C744   1.462       .  S
N706        C707   1.353       .  A
C707        N708   1.359       .  A
C707        C716   1.466       .  S
C709        N710   1.365       .  A
C709        N714   1.369       .  A
C709       C1380   1.500       .  S
N710        C711   1.355       .  A
C711        N712   1.350       .  A
C711        C769   1.462       .  S
N712        C713   1.351       .  A
C713        N714   1.362       .  A
C713        C721   1.468       .  S
In715       O717   2.249       .  S
In715       O718   2.274   1_455  S
In715       O720   2.263       .  S
In715       O722   2.235       .  S
In715       O724   2.254       .  S
C716        O722   1.262       .  A
C716        O724   1.262       .  A
O717        C725   1.258   1_455  A
O718        C725   1.260       .  A
C719        C755   1.464       .  S
C719        O720   1.259       .  A
C721        O723   1.261       .  A
C721        O727   1.261       .  A
C725        C730   1.470       .  S
C728        N729   1.366       .  A
C728        N733   1.365       .  A
C728       C1366   1.493       .  S
N729        C730   1.360       .  A
C730        N731   1.355       .  A
N731        C732   1.354       .  A
C732        N733   1.358       .  A
C732        C746   1.466       .  S
C734        N735   1.362       .  A
C734        N739   1.368       .  A
C734       C1352   1.489       .  S
N735        C736   1.353       .  A
C736        N737   1.353       .  A
C736        C775   1.461       .  S
N737        C738   1.352       .  A
C738        N739   1.361       .  A
C738        C741   1.466       .  S
In740       O742   2.197   1_655  S
In740       O743   2.269       .  S
In740       O751   2.206   1_655  S
In740       O745   2.248   1_655  S
In740       O747   2.234       .  S
In740       O748   2.246       .  S
In740       O749   2.243       .  S
In740       O752   2.226       .  S
C741        O747   1.267       .  A
C741        O749   1.264       .  A
O742        C750   1.259       .  A
O743        C750   1.271   1_655  A
C744        O751   1.263       .  A
C744        O745   1.270       .  A
C746        O748   1.270       .  A
C746        O752   1.265       .  A
C750        C761   1.464       .  S
C753        N758   1.367       .  A
C753       C1335   1.492       .  S
N754        C755   1.357       .  A
N756        C757   1.354       .  A
C757        N758   1.360       .  A
C757        C771   1.467       .  S
C759        N760   1.364       .  A
C759        N764   1.366       .  A
C759       C1321   1.490       .  S
N760        C761   1.356       .  A
C761        N762   1.353       .  A
N762        C763   1.352       .  A
C763        N764   1.358       .  A
C763        C766   1.465       .  S
In765       O767   2.198       .  S
In765       O768   2.263   1_455  S
In765       O776   2.258       .  S
In765       O770   2.203       .  S
In765       O772   2.234       .  S
In765       O773   2.249   1_455  S
In765       O774   2.242       .  S
In765       O777   2.233       .  S
C766        O772   1.266       .  A
C766        O774   1.264       .  A
O767        C775   1.259   1_455  A
O768        C775   1.270       .  A
C769        O776   1.269       .  A
C769        O770   1.261       .  A
C771        O773   1.268   1_455  A
C771        O777   1.265       .  A
C778        N779   1.365       .  A
C778        N783   1.363       .  A
C778       C1307   1.490       .  S
N779        C780   1.358       .  A
C780        N781   1.352       .  A
C780        C791   1.463       .  S
N781        C782   1.353       .  A
C782        N783   1.356       .  A
C782        C821   1.462       .  S
C784        N785   1.370       .  A
C784        N789   1.367       .  A
C784       C1293   1.496       .  S
N785        C786   1.363       .  A
C786        N787   1.349       .  A
N787        C788   1.349       .  A
C788        N789   1.357       .  A
C788        C844   1.464       .  S
In790       O792   2.252       .  S
In790       O793   2.234       .  S
In790       O801   2.286       .  S
In790       O795   2.209       .  S
In790       O797   2.239       .  S
In790       O798   2.215   1_655  S
In790       O799   2.247       .  S
In790       O802   2.277   1_655  S
C791        O797   1.263       .  A
C791        O799   1.262       .  A
O792        C800   1.264       .  A
O793        C800   1.264       .  A
C794        C832   1.465       .  S
C794        O801   1.265       .  A
C794        O795   1.258       .  A
C796        C805   1.464       .  S
C796        O798   1.257       .  A
C796        O802   1.264       .  A
C803        N804   1.365       .  A
C803        N808   1.366       .  A
C803       C1282   1.489       .  S
N804        C805   1.359       .  A
C805        N806   1.352       .  A
N806        C807   1.351       .  A
C807        N808   1.357       .  A
C807        C816   1.463       .  S
C809        N810   1.366       .  A
C809        N814   1.369       .  A
C809       C1265   1.495       .  S
N810        C811   1.357       .  A
C811        N812   1.351       .  A
C811        C846   1.464       .  S
N812        C813   1.350       .  A
C813        N814   1.360       .  A
C813        C825   1.465       .  S
In815       O817   2.250       .  S
In815       O818   2.232       .  S
In815       O826   2.201   1_455  S
In815       O820   2.262       .  S
In815       O822   2.234       .  S
In815       O823   2.263   1_455  S
In815       O824   2.243       .  S
In815       O827   2.211   1_455  S
C816        O822   1.265       .  A
C816        O824   1.263       .  A
O817        C825   1.265       .  A
O818        C825   1.265       .  A
C819        C836   1.459   1_455  S
C819        O826   1.258   1_455  A
C819        O820   1.267       .  A
C821        O823   1.267       .  A
C821        O827   1.259       .  A
C828        N833   1.369   1_554  A
C828       C1338   1.494   1_554  S
N829        C830   1.358       .  A
C830        C850   1.457       .  S
N831        C832   1.348   1_554  A
C832        N833   1.361       .  A
C834        N835   1.362   1_655  A
C834        N839   1.365       .  A
C834       C1324   1.487       .  S
N835        C836   1.354   1_455  A
C836        N837   1.351       .  A
N837        C838   1.351       .  A
C838        N839   1.358       .  A
C838        C841   1.459       .  S
In840       O842   2.235       .  S
In840       O843   2.231   1_655  S
In840       O851   2.275       .  S
In840       O845   2.215       .  S
In840       O847   2.228       .  S
In840       O848   2.210   1_655  S
In840       O849   2.239   1_655  S
In840       O852   2.276   1_655  S
C841        O847   1.264       .  A
C841        O849   1.263   1_655  A
O842        C850   1.263       .  A
O843        C850   1.265   1_455  A
C844        O851   1.265       .  A
C844        O845   1.258       .  A
C846        O848   1.257       .  A
C846        O852   1.265       .  A
C853        N854   1.365       .  A
C853        N858   1.366       .  A
C853       C1251   1.489       .  S
N854        C855   1.357       .  A
C855        N856   1.350       .  A
C855        C919   1.463       .  S
N856        C857   1.351       .  A
C857        N858   1.361       .  A
C857        C871   1.463       .  S
C859        N860   1.362       .  A
C859        N864   1.364       .  A
C859       C1237   1.492       .  S
N860        C861   1.356       .  A
C861        N862   1.353       .  A
C861        C894   1.465       .  S
N862        C863   1.354       .  A
C863        N864   1.360       .  A
C863        C866   1.464       .  S
In865       O868   2.234       .  S
In865       O876   2.239       .  S
In865       O870   2.271       .  S
In865       O873   2.233       .  S
In865       O877   2.258       .  S
C866        O872   1.262       .  A
C866        O874   1.261       .  A
O867        C875   1.259   1_554  A
C869        C907   1.464       .  S
C869        O876   1.258       .  A
C869        O870   1.258       .  A
C871        O873   1.262       .  A
C871        O877   1.261       .  A
C875        C886   1.461       .  S
C878        N879   1.369       .  A
C878        N883   1.365       .  A
C878       C1226   1.489       .  S
N879        C880   1.361       .  A
C880        N881   1.349       .  A
C880        C891   1.464       .  S
N881        C882   1.350       .  A
C882        N883   1.356       .  A
C882        C925   1.463       .  S
C884        N889   1.367       .  A
C884       C1212   1.492       .  S
C886        N887   1.351       .  A
N887        C888   1.350       .  A
C888        N889   1.358       .  A
C888        C896   1.461       .  S
In890       O892   2.267       .  S
In890       O893   2.198       .  S
In890       O901   2.254       .  S
In890       O895   2.214       .  S
In890       O897   2.232       .  S
In890       O898   2.242       .  S
In890       O899   2.245       .  S
In890       O902   2.221       .  S
C891        O897   1.267       .  A
C891        O899   1.264       .  A
O892        C900   1.270       .  A
O893        C900   1.260       .  A
C894        O901   1.269       .  A
C894        O895   1.262       .  A
C896        O898   1.269       .  A
C896        O902   1.264       .  A
C900        C911   1.464       .  S
C903        N904   1.370       .  A
C903        N908   1.366       .  A
C903       C1296   1.495       .  S
N904        C905   1.361       .  A
C905        N906   1.351       .  A
C905        C921   1.467       .  S
N906        C907   1.351       .  A
C907        N908   1.359       .  A
C909        N910   1.364       .  A
C909        N914   1.366       .  A
C909       C1310   1.492       .  S
N910        C911   1.356       .  A
C911        N912   1.353       .  A
N912        C913   1.351       .  A
C913        N914   1.359       .  A
C913        C916   1.464       .  S
In915       O917   2.277       .  S
In915       O918   2.195       .  S
In915       O926   2.261       .  S
In915       O920   2.210       .  S
In915       O922   2.236       .  S
In915       O923   2.258       .  S
In915       O924   2.243       .  S
In915       O927   2.228       .  S
C916        O922   1.265       .  A
C916        O924   1.263       .  A
O917        C925   1.269       .  A
O918        C925   1.258       .  A
C919        O926   1.268       .  A
C919        O920   1.262       .  A
C921        O923   1.268       .  A
C921        O927   1.264       .  A
C928        N929   1.367       .  A
C928       C1209   1.492       .  S
N929        C930   1.358       .  A
C930        C971   1.468       .  S
N931        C932   1.351       .  A
C932        N933   1.357       .  A
C932        C941   1.462       .  S
C934        N935   1.367       .  A
C934        N939   1.366       .  A
C934       C1223   1.490       .  S
N935        C936   1.359       .  A
C936        N937   1.350       .  A
C936        C950   1.462       .  S
N937        C938   1.351       .  A
C938        N939   1.358       .  A
C938        C996   1.464       .  S
In940       O942   2.246       .  S
In940       O943   2.231       .  S
In940       O951   2.262       .  S
In940       O945   2.206       .  S
In940       O947   2.236       .  S
In940       O948   2.212       .  S
In940       O949   2.239       .  S
In940       O952   2.262       .  S
C941        O947   1.265       .  A
C941        O949   1.263       .  A
O942        C950   1.264       .  A
O943        C950   1.265       .  A
C944        C986   1.461       .  S
C944        O951   1.267       .  A
C944        O945   1.259       .  A
C946        C961   1.462       .  S
C946        O948   1.259       .  A
C946        O952   1.266       .  A
C953        N954   1.370       .  A
C953        N958   1.362       .  A
C953       C1195   1.487       .  S
N954        C955   1.363       .  A
C955        N956   1.351       .  A
C955        C975   1.470       .  S
N956        C957   1.352       .  A
C957        N958   1.355       .  A
C957        C994   1.461       .  S
C959        N960   1.362       .  A
C959        N964   1.363       .  A
C959       C1184   1.482       .  S
N960        C961   1.356       .  A
C961        N962   1.353       .  A
N962        C963   1.352       .  A
C963        N964   1.356       .  A
C963        C966   1.459       .  S
In965       O967   2.256       .  S
In965       O968   2.242       .  S
In965       O976   2.264       .  S
In965       O970   2.211       .  S
In965       O973   2.289       .  S
In965       O974   2.242       .  S
In965       O977   2.211       .  S
C966        O972   1.263       .  A
O967        C975   1.264       .  A
O968        C975   1.266       .  A
C969        C982   1.461       .  S
C969        O976   1.264       .  A
C969        O970   1.259       .  A
C971        O973   1.267       .  A
C971        O977   1.256       .  A
C978        N979   1.368       .  A
C978        N983   1.365       .  A
C978       C1377   1.495       .  S
N979        C980   1.359       .  A
C980        N981   1.349       .  A
C980       C1000   1.461       .  S
N981        C982   1.350       .  A
C982        N983   1.358       .  A
C984        N985   1.363       .  A
C984        N989   1.367       .  A
C984       C1394   1.492       .  S
N985        C986   1.354       .  A
C986        N987   1.351       .  A
N987        C988   1.351       .  A
C988        N989   1.360       .  A
C988        C991   1.461       .  S
In990       O992   2.245       .  S
In990       O993   2.227       .  S
In990      O1001   2.268       .  S
In990       O995   2.210       .  S
In990       O997   2.232       .  S
In990       O998   2.273       .  S
In990       O999   2.242       .  S
In990      O1002   2.215       .  S
C991        O997   1.264       .  A
C991        O999   1.263       .  A
O992       C1000   1.264       .  A
O993       C1000   1.264       .  A
C994       O1001   1.265       .  A
C994        O995   1.257       .  A
C996        O998   1.265       .  A
C996       O1002   1.258       .  A
C1003      N1004   1.360       .  A
C1003      N1008   1.367       .  A
C1003      C1349   1.488       .  S
N1004      C1005   1.352       .  A
C1005      N1006   1.352       .  A
C1005      C1046   1.461       .  S
N1006      C1007   1.354       .  A
C1007      N1008   1.362       .  A
C1007      C1016   1.466       .  S
C1009      N1010   1.368       .  A
C1009      N1014   1.369       .  A
C1009      C1363   1.494       .  S
C1011      C1025   1.460   1_554  S
N1012      C1013   1.349       .  A
C1013      N1014   1.360       .  A
C1013      C1071   1.463       .  S
In1015     O1017   2.233       .  S
In1015     O1018   2.238       .  S
In1015     O1026   2.216   1_545  S
In1015     O1020   2.267       .  S
In1015     O1022   2.237       .  S
In1015     O1023   2.270   1_545  S
In1015     O1024   2.254       .  S
In1015     O1027   2.203   1_545  S
C1016      O1022   1.264       .  A
C1016      O1024   1.262       .  A
O1017      C1025   1.264       .  A
O1018      C1025   1.265       .  A
C1019      C1063   1.465       .  S
C1019      O1026   1.260       .  A
C1019      O1020   1.266   1_565  A
C1021      C1032   1.460       .  S
C1021      O1023   1.266       .  A
C1021      O1027   1.258       .  A
C1028      N1029   1.369       .  A
C1028      N1033   1.364       .  A
C1028      C1240   1.491       .  S
N1029      C1030   1.359       .  A
C1030      N1031   1.349       .  A
C1030      C1041   1.464       .  S
N1031      C1032   1.351       .  A
C1032      N1033   1.357       .  A
C1034      N1035   1.365       .  A
C1034      N1039   1.366       .  A
C1034      C1254   1.489       .  S
N1035      C1036   1.358       .  A
C1036      N1037   1.351       .  A
C1036      C1069   1.464       .  S
N1037      C1038   1.351       .  A
C1038      N1039   1.360       .  A
C1038      C1050   1.463       .  S
In1040     O1042   2.247       .  S
In1040     O1043   2.232       .  S
In1040     O1051   2.204       .  S
In1040     O1045   2.284       .  S
In1040     O1047   2.232       .  S
In1040     O1048   2.257   1_565  S
In1040     O1049   2.248       .  S
In1040     O1052   2.216   1_565  S
C1041      O1047   1.265       .  A
C1041      O1049   1.263       .  A
O1042      C1050   1.264       .  A
O1043      C1050   1.264       .  A
C1044      C1057   1.466       .  S
C1044      O1051   1.258       .  A
C1044      O1045   1.267       .  A
C1046      O1048   1.266       .  A
C1046      O1052   1.258       .  A
C1053      N1054   1.370       .  A
C1053      N1058   1.369       .  A
C1053      C1167   1.508       .  S
N1054      C1055   1.359       .  A
C1055      N1056   1.348       .  A
C1055      C1075   1.463       .  S
N1056      C1057   1.349       .  A
C1057      N1058   1.359       .  A
C1059      N1064   1.364       .  A
C1059      C1156   1.490       .  S
N1060      C1061   1.358       .  A
C1061      C1066   1.463       .  S
N1062      C1063   1.352   1_554  A
C1063      N1064   1.358       .  A
In1065     O1067   2.247       .  S
In1065     O1068   2.239   1_565  S
In1065     O1076   2.216       .  S
In1065     O1070   2.272       .  S
In1065     O1072   2.232       .  S
In1065     O1073   2.203   1_565  S
In1065     O1074   2.249       .  S
In1065     O1077   2.286   1_565  S
C1066      O1072   1.263       .  A
C1066      O1074   1.264       .  A
O1067      C1075   1.263       .  A
O1068      C1075   1.264   1_545  A
C1069      O1076   1.258       .  A
C1069      O1070   1.264       .  A
C1071      O1073   1.257       .  A
C1071      O1077   1.265       .  A
C1078      N1079   1.362       .  A
C1078      N1083   1.363       .  A
C1078      C1181   1.482       .  S
N1079      C1080   1.356       .  A
C1080      N1081   1.353       .  A
C1080      C1125   1.461       .  S
N1081      C1082   1.352       .  A
C1082      N1083   1.358       .  A
C1082      C1091   1.462       .  S
C1084      N1085   1.367       .  A
C1084      N1089   1.360       .  A
C1084      C1198   1.485       .  S
N1085      C1086   1.362       .  A
C1086      N1087   1.352       .  A
C1086      C1096   1.465       .  S
N1087      C1088   1.350       .  A
C1088      N1089   1.353       .  A
C1088      C1144   1.456       .  S
In1090     O1092   2.240   1_545  S
In1090     O1093   2.267   1_545  S
In1090     O1101   2.242       .  S
In1090     O1095   2.272   1_545  S
In1090     O1097   2.231       .  S
In1090     O1098   2.230       .  S
In1090     O1099   2.253       .  S
In1090     O1102   2.259       .  S
C1091      O1097   1.261       .  A
C1091      O1099   1.261       .  A
O1092      C1100   1.258       .  A
O1093      C1100   1.259       .  A
C1094      C1132   1.465       .  S
C1094      O1101   1.257       .  A
C1094      O1095   1.259   1_545  A
C1096      O1098   1.263       .  A
C1096      O1102   1.261       .  A
C1100      C1107   1.463       .  S
C1103      N1104   1.367       .  A
C1103      N1108   1.366       .  A
C1103      C1268   1.493       .  S
N1104      C1105   1.359       .  A
C1105      N1106   1.352       .  A
C1105      C1116   1.464       .  S
N1106      C1107   1.352       .  A
C1107      N1108   1.357       .  A
C1109      N1110   1.365       .  A
C1109      N1114   1.368       .  A
C1109      C1279   1.490       .  S
N1110      C1111   1.356       .  A
C1111      N1112   1.351       .  A
C1111      C1150   1.463       .  S
N1112      C1113   1.350       .  A
C1113      N1114   1.360       .  A
C1113      C1121   1.463       .  S
In1115     O1117   2.206   1_565  S
In1115     O1118   2.254   1_565  S
In1115     O1120   2.269       .  S
In1115     O1122   2.250       .  S
In1115     O1124   2.223       .  S
C1116      O1122   1.269       .  A
C1116      O1124   1.264       .  A
O1117      C1125   1.262       .  A
O1118      C1125   1.269       .  A
C1119      C1136   1.462       .  S
C1119      O1120   1.269       .  A
C1121      O1123   1.266       .  A
C1121      O1127   1.263       .  A
C1128      N1129   1.367       .  A
C1128      N1133   1.368       .  A
C1128      C1170   1.503       .  S
N1129      C1130   1.357       .  A
C1130      N1131   1.351   1_565  A
C1130      C1146   1.463       .  S
N1131      C1132   1.352       .  A
C1132      N1133   1.360   1_545  A
C1134      N1139   1.368       .  A
C1134      C1153   1.491       .  S
N1135      C1136   1.356       .  A
N1137      C1138   1.350       .  A
C1138      N1139   1.359       .  A
C1138      C1141   1.462       .  S
In1140     O1142   2.271       .  S
In1140     O1143   2.192       .  S
In1140     O1151   2.243   1_565  S
In1140     O1145   2.201       .  S
In1140     O1147   2.229   1_565  S
In1140     O1148   2.249       .  S
In1140     O1149   2.242       .  S
In1140     O1152   2.219   1_565  S
C1141      O1147   1.266   1_565  A
C1141      O1149   1.265       .  A
O1142      C1150   1.270       .  A
O1143      C1150   1.259       .  A
C1144      O1151   1.269       .  A
C1144      O1145   1.262   1_545  A
C1146      O1148   1.269       .  A
C1146      O1152   1.263   1_565  A
C1153      C1158   1.414       .  A
C1154      C1155   1.412   1_545  A
C1154      C1159   1.452       .  S
C1155      C1162   1.452   1_565  S
C1156      C1157   1.415       .  A
C1157      C1158   1.413       .  A
C1157      C1160   1.451       .  S
C1158      C1161   1.452       .  S
C1159      N1166   1.157       .  T
C1160      N1165   1.157       .  T
C1161      N1163   1.157       .  T
C1162      N1164   1.157       .  T
C1167      C1168   1.421       .  A
C1167      C1172   1.420       .  A
C1168      C1169   1.414       .  A
C1168      C1173   1.453   1_565  S
C1169      C1170   1.418       .  A
C1169      C1176   1.453   1_565  S
C1170      C1171   1.417       .  A
C1171      C1172   1.417       .  A
C1171      C1174   1.452       .  S
C1172      C1175   1.452       .  S
C1173      N1180   1.158       .  T
C1174      N1179   1.158       .  T
C1175      N1177   1.157       .  T
C1176      N1178   1.158       .  T
C1181      C1182   1.413       .  A
C1181      C1186   1.413       .  A
C1182      C1183   1.409       .  A
C1182      C1187   1.451       .  S
C1183      C1184   1.412       .  A
C1183      C1190   1.452       .  S
C1184      C1185   1.414       .  A
C1185      C1186   1.410       .  A
C1185      C1188   1.452       .  S
C1186      C1189   1.452       .  S
C1187      N1194   1.157       .  T
C1188      N1193   1.157       .  T
C1189      N1191   1.157       .  T
C1190      N1192   1.157       .  T
C1195      C1196   1.413       .  A
C1195      C1200   1.414       .  A
C1196      C1197   1.411       .  A
C1196      C1201   1.451       .  S
C1197      C1198   1.414       .  A
C1197      C1204   1.452       .  S
C1198      C1199   1.412       .  A
C1199      C1200   1.413       .  A
C1199      C1202   1.451       .  S
C1200      C1203   1.450       .  S
C1201      N1208   1.157       .  T
C1202      N1207   1.157       .  T
C1203      N1205   1.157       .  T
C1204      N1206   1.157       .  T
C1209      C1210   1.416       .  A
C1210      C1211   1.412       .  A
C1210      C1215   1.452       .  S
C1211      C1212   1.415       .  A
C1211      C1218   1.452       .  S
C1213      C1214   1.413       .  A
C1213      C1216   1.452       .  S
C1214      C1217   1.451       .  S
C1215      N1222   1.157       .  T
C1216      N1221   1.157       .  T
C1217      N1219   1.157       .  T
C1218      N1220   1.157       .  T
C1223      C1224   1.417       .  A
C1223      C1228   1.413       .  A
C1224      C1225   1.414       .  A
C1224      C1229   1.451       .  S
C1225      C1226   1.412       .  A
C1225      C1232   1.451       .  S
C1226      C1227   1.415       .  A
C1227      C1228   1.412       .  A
C1227      C1230   1.452       .  S
C1228      C1231   1.451       .  S
C1229      N1236   1.157       .  T
C1230      N1235   1.157       .  T
C1231      N1233   1.157       .  T
C1232      N1234   1.157       .  T
C1237      C1238   1.416       .  A
C1237      C1242   1.415       .  A
C1238      C1239   1.410       .  A
C1238      C1243   1.452       .  S
C1239      C1240   1.414       .  A
C1239      C1246   1.453       .  S
C1240      C1241   1.416       .  A
C1241      C1242   1.414       .  A
C1241      C1244   1.451       .  S
C1242      C1245   1.452       .  S
C1243      N1250   1.158       .  T
C1244      N1249   1.158       .  T
C1245      N1247   1.157       .  T
C1246      N1248   1.157       .  T
C1251      C1252   1.413       .  A
C1251      C1256   1.414       .  A
C1252      C1253   1.412       .  A
C1252      C1257   1.451       .  S
C1253      C1254   1.414       .  A
C1253      C1260   1.451       .  S
C1254      C1255   1.414       .  A
C1255      C1256   1.414       .  A
C1255      C1258   1.451       .  S
C1256      C1259   1.451       .  S
C1257      N1264   1.157       .  T
C1258      N1263   1.157       .  T
C1259      N1261   1.157       .  T
C1260      N1262   1.157       .  T
C1265      C1266   1.415       .  A
C1265      C1270   1.418       .  A
C1266      C1267   1.414       .  A
C1266      C1271   1.451       .  S
C1267      C1268   1.415       .  A
C1267      C1274   1.451       .  S
C1268      C1269   1.415       .  A
C1269      C1270   1.413       .  A
C1269      C1272   1.452       .  S
C1270      C1273   1.452       .  S
C1271      N1278   1.157       .  T
C1272      N1277   1.158       .  T
C1273      N1275   1.158       .  T
C1274      N1276   1.157       .  T
C1279      C1280   1.416       .  A
C1279      C1284   1.414       .  A
C1280      C1281   1.414       .  A
C1280      C1285   1.451       .  S
C1281      C1282   1.413       .  A
C1281      C1288   1.451       .  S
C1282      C1283   1.415       .  A
C1283      C1284   1.411       .  A
C1283      C1286   1.452       .  S
C1284      C1287   1.452       .  S
C1285      N1292   1.157       .  T
C1286      N1291   1.157       .  T
C1287      N1289   1.157       .  T
C1288      N1290   1.157       .  T
C1293      C1294   1.414       .  A
C1293      C1298   1.417       .  A
C1294      C1295   1.417       .  A
C1294      C1299   1.450       .  S
C1295      C1296   1.415       .  A
C1295      C1302   1.450       .  S
C1296      C1297   1.414       .  A
C1297      C1298   1.413       .  A
C1297      C1300   1.452       .  S
C1298      C1301   1.452       .  S
C1299      N1306   1.157       .  T
C1300      N1305   1.157       .  T
C1301      N1303   1.157       .  T
C1302      N1304   1.157       .  T
C1307      C1308   1.414       .  A
C1307      C1312   1.416       .  A
C1308      C1309   1.411       .  A
C1308      C1313   1.452       .  S
C1309      C1310   1.416       .  A
C1309      C1316   1.452       .  S
C1310      C1311   1.415       .  A
C1311      C1312   1.412       .  A
C1311      C1314   1.452       .  S
C1312      C1315   1.452       .  S
C1313      N1320   1.157       .  T
C1314      N1319   1.157       .  T
C1315      N1317   1.157       .  T
C1316      N1318   1.157       .  T
C1321      C1322   1.414   1_455  A
C1321      C1326   1.417       .  A
C1322      C1323   1.410       .  A
C1322      C1327   1.452       .  S
C1323      C1324   1.416       .  A
C1323      C1330   1.452       .  S
C1324      C1325   1.413   1_655  A
C1325      C1326   1.411       .  A
C1325      C1328   1.452       .  S
C1326      C1329   1.452       .  S
C1327      N1334   1.157       .  T
C1328      N1333   1.157       .  T
C1329      N1331   1.157       .  T
C1330      N1332   1.157       .  T
C1335      C1340   1.414   1_455  A
C1336      C1337   1.412       .  A
C1336      C1341   1.452       .  S
C1337      C1344   1.452       .  S
C1338      C1339   1.415       .  A
C1339      C1340   1.415       .  A
C1339      C1342   1.450       .  S
C1340      C1343   1.451       .  S
C1341      N1348   1.158       .  T
C1342      N1347   1.157       .  T
C1343      N1345   1.157       .  T
C1344      N1346   1.157       .  T
C1349      C1350   1.412       .  A
C1349      C1354   1.416       .  A
C1350      C1351   1.412       .  A
C1350      C1355   1.451       .  S
C1351      C1352   1.417       .  A
C1351      C1358   1.452       .  S
C1352      C1353   1.414       .  A
C1353      C1354   1.411       .  A
C1353      C1356   1.452       .  S
C1354      C1357   1.452       .  S
C1355      N1362   1.157       .  T
C1356      N1361   1.157       .  T
C1357      N1359   1.157       .  T
C1358      N1360   1.157       .  T
C1363      C1364   1.416       .  A
C1363      C1368   1.415       .  A
C1364      C1365   1.414       .  A
C1364      C1369   1.452       .  S
C1365      C1366   1.416       .  A
C1365      C1372   1.452       .  S
C1366      C1367   1.414       .  A
C1367      C1368   1.413       .  A
C1369      N1376   1.158       .  T
C1370      N1375   1.157       .  T
C1371      N1373   1.157       .  T
C1372      N1374   1.157       .  T
C1377      C1378   1.416       .  A
C1377      C1382   1.415       .  A
C1378      C1379   1.416       .  A
C1378      C1383   1.452       .  S
C1379      C1380   1.418       .  A
C1379      C1386   1.451       .  S
C1380      C1381   1.418       .  A
C1381      C1382   1.412       .  A
C1381      C1384   1.452       .  S
C1382      C1385   1.452       .  S
C1383      N1390   1.157       .  T
C1384      N1389   1.157       .  T
C1385      N1387   1.157       .  T
C1386      N1388   1.157       .  T
C1391      C1392   1.416       .  A
C1391      C1396   1.415       .  A
C1392      C1393   1.413       .  A
C1392      C1397   1.452       .  S
C1393      C1394   1.415       .  A
C1393      C1400   1.452       .  S
C1394      C1395   1.418       .  A
C1395      C1396   1.411       .  A
C1395      C1398   1.453       .  S
C1396      C1399   1.453       .  S
C1397      N1404   1.157       .  T
C1398      N1403   1.157       .  T
C1399      N1401   1.157       .  T
C1400      N1402   1.157       .  T
