geometry optimzed in LAMMPS
_audit_creation_date              2020-11-30 
_audit_creation_method            'lammps2cif' 
_symmetry_space_group_name_H-M    'P1' 
_symmetry_Int_Tables_number       1 
_symmetry_cell_setting            triclinic 
loop_ 
_symmetry_equiv_pos_as_xyz 
  x,y,z 
_cell_length_a                    38.33072263 
_cell_length_b                    38.345968414205565 
_cell_length_c                    68.90992527602191 
_cell_angle_alpha                 89.9544289170496 
_cell_angle_beta                  90.01258077340057 
_cell_angle_gamma                 123.04882261849042 
loop_ 
_atom_site_label 
_atom_site_type_symbol 
_atom_site_fract_x 
_atom_site_fract_y 
_atom_site_fract_z 
_atom_site_charge 
C1          C  0.32714872  0.31697559  0.66728408     0.80300
N2          N  0.29452907  0.31556720  0.65834178    -0.78000
C3          C  0.30198606  0.34073939  0.64281172     0.82800
N4          N  0.34138566  0.36673878  0.63645156    -0.77900
C5          C  0.37395594  0.36900309  0.64527274     0.82900
N6          N  0.36665891  0.34360722  0.66056634    -0.79600
C7          C  0.13996632  0.38179136  0.64035810     0.80300
N8          N  0.17126872  0.37938693  0.63285601    -0.78000
C9          C  0.18040138  0.35245574  0.64027807     0.82800
N10         N  0.15760749  0.32708901  0.65516885    -0.77900
C11         C  0.12569036  0.32866743  0.66265903     0.82900
N12         N  0.11697621  0.35591148  0.65512694    -0.79600
C13         C  0.25139519  0.35921361  0.60256983     0.80300
N14         N  0.22008247  0.35874961  0.61184721    -0.78000
C15         C  0.21265104  0.34909855  0.63094245     0.82800
N16         N  0.23722200  0.34009239  0.64119286    -0.77900
C17         C  0.26918189  0.34102851  0.63201844     0.82900
N18         N  0.27610625  0.35089014  0.61285458    -0.79600
C19         C  0.11236371  0.78689372  0.66119819     0.80300
N20         N  0.14709489  0.82172960  0.65379458    -0.78000
C21         C  0.16904622  0.81800913  0.63930963     0.82800
N22         N  0.15664601  0.77979643  0.63256963    -0.77900
C23         C  0.12310927  0.74503113  0.63997948     0.82900
N24         N  0.10074704  0.74877579  0.65413377    -0.79600
C25         C  0.33481019  0.00638831  0.66483901     0.80300
N26         N  0.37347019  0.01813186  0.65844194    -0.78000
C27         C  0.37802625  0.99698890  0.64394017     0.82800
N28         N  0.34369150  0.96487789  0.63552531    -0.77900
C29         C  0.30504411  0.95264031  0.64153439     0.82900
N30         N  0.30037810  0.97328195  0.65630408    -0.79600
C31         C  0.25022455  0.87685458  0.60261462     0.80300
N32         N  0.27785442  0.91142729  0.61258446    -0.78000
C33         C  0.27001811  0.91798560  0.63098027     0.82800
N34         N  0.23364020  0.88893582  0.63985111    -0.77900
C35         C  0.20550384  0.85379920  0.62990442     0.82900
N36         N  0.21430666  0.84807544  0.61151013    -0.79600
N37         N  0.66027994  0.07472875  0.56998118    -0.36500
N38         N  0.62470765  0.10733934  0.54350312    -0.57100
N39         N  0.55997615  0.08534829  0.57253150    -0.36500
N40         N  0.59225876  0.04725091  0.59733313    -0.57100
C41         C  0.68518848  0.08433065  0.55431399     0.27100
C42         C  0.66718671  0.05109038  0.58196351     0.27100
C43         C  0.54533048  0.09560572  0.55716215     0.27100
C44         C  0.52798725  0.06376493  0.58509364     0.27100
C45         C  0.66260244  0.12412755  0.53522474     0.35700
C46         C  0.60843963  0.12827324  0.53621472     0.35700
C47         C  0.61527288  0.03715716  0.60786590     0.35700
C48         C  0.56193561  0.04268332  0.60916393     0.35700
C49         C  0.70825233  0.06657506  0.55630040    -0.21800
C50         C  0.69705955  0.04576873  0.57372043    -0.21800
C51         C  0.50363450  0.08059092  0.56002759    -0.21800
C52         C  0.49269521  0.06057201  0.57764084    -0.21800
C53         C  0.67001937  0.15529410  0.52235195    -0.22800
C54         C  0.63563927  0.15779064  0.52292282    -0.22800
C55         C  0.59896244  0.02531883  0.62642816    -0.22800
C56         C  0.56519621  0.02890241  0.62725849    -0.22800
C57         C  0.69071494  0.11189026  0.53915993    -0.18200
C58         C  0.64958459  0.03662925  0.60069052    -0.18200
C59         C  0.52998465  0.04848721  0.60351090    -0.18200
C60         C  0.56925713  0.12094648  0.54133522    -0.18200
H61         H  0.73151393  0.06918962  0.54641348     0.14700
H62         H  0.71032821  0.02944430  0.57974483     0.14700
H63         H  0.48333557  0.08420793  0.55051424     0.14700
H64         H  0.46220538  0.04562220  0.58425979     0.14700
H65         H  0.69755774  0.17469053  0.51364418     0.13000
H66         H  0.63152925  0.17941952  0.51475532     0.13000
H67         H  0.60997390  0.01484162  0.63810390     0.13000
H68         H  0.54509746  0.02176280  0.63968449     0.13000
H69         H  0.64205253  0.08634320  0.57291684     0.26300
H70         H  0.59066702  0.09501033  0.57490086     0.26300
C71         C  0.50074857  0.26763543  0.50180203     0.80300
N72         N  0.51317690  0.24406286  0.50997780    -0.78000
C73         C  0.50737451  0.20987674  0.50099339     0.82800
N74         N  0.48865798  0.19923237  0.48327456    -0.77900
C75         C  0.47596169  0.22261169  0.47467755     0.82900
N76         N  0.48243302  0.25692544  0.48405566    -0.79600
N77         N  0.61520032  0.49355713  0.54131537    -0.36500
N78         N  0.66088400  0.56550498  0.56698568    -0.57100
N79         N  0.59297840  0.52754993  0.59482363    -0.36500
N80         N  0.54966329  0.45325336  0.57072015    -0.57100
C81         C  0.65422222  0.51234028  0.53399401     0.27100
C82         C  0.59416347  0.45340317  0.53543939     0.27100
C83         C  0.62191499  0.56094611  0.60512486     0.27100
C84         C  0.56323399  0.50075504  0.60738507     0.27100
C85         C  0.68600284  0.57986290  0.55128736     0.35700
C86         C  0.67321959  0.59873079  0.57851556     0.35700
C87         C  0.53123819  0.42538366  0.55615875     0.35700
C88         C  0.51985435  0.44287823  0.58416904     0.35700
C89         C  0.65760169  0.48405483  0.52298273    -0.21800
C90         C  0.61975139  0.44694788  0.52386684    -0.21800
C91         C  0.61015117  0.55563254  0.62448144    -0.21800
C92         C  0.57304632  0.51757032  0.62590978    -0.21800
C93         C  0.71453896  0.62234071  0.55282991    -0.22800
C94         C  0.70638959  0.63436105  0.57007882    -0.22800
C95         C  0.48963477  0.39702052  0.56039741    -0.22800
C96         C  0.48239596  0.40807773  0.57814574    -0.22800
C97         C  0.68690920  0.55433165  0.53687417    -0.18200
C98         C  0.55253940  0.42227212  0.54022664    -0.18200
C99         C  0.52644503  0.46266705  0.60235583    -0.18200
C100        C  0.65761807  0.59676823  0.59733521    -0.18200
H101        H  0.68471380  0.48929929  0.51532593     0.14700
H102        H  0.61228793  0.41824708  0.51704906     0.14700
H103        H  0.62648088  0.57703071  0.63632280     0.14700
H104        H  0.55520229  0.50394548  0.63905915     0.14700
H105        H  0.73932830  0.64229682  0.54280803     0.13000
H106        H  0.72367761  0.66555985  0.57597683     0.13000
H107        H  0.46711672  0.37058537  0.55177858     0.13000
H108        H  0.45304828  0.39189296  0.58586280     0.13000
H109        H  0.60322212  0.50750481  0.54945471     0.26300
H110        H  0.59241796  0.52428093  0.57988495     0.26300
C111        C  0.83788991  0.59937542  0.49620600     0.80300
N112        N  0.86247689  0.58910588  0.50524664    -0.78000
C113        C  0.89758130  0.59577540  0.49684598     0.82800
N114        N  0.90830016  0.61349393  0.47888013    -0.77900
C115        C  0.88383778  0.62385977  0.46946638     0.82900
N116        N  0.84868268  0.61667580  0.47825131    -0.79600
C117        C  0.89467039  0.22460486  0.47317127     0.80300
N118        N  0.92360124  0.26101904  0.48199931    -0.78000
C119        C  0.91646515  0.27054077  0.49993825     0.82800
N120        N  0.87987169  0.24360246  0.50888913    -0.77900
C121        C  0.85054003  0.20726244  0.50044159     0.82900
N122        N  0.85805856  0.19797553  0.48249439    -0.79600
N123        N  0.05073986  0.46358349  0.56728311    -0.36500
N124        N  0.01548950  0.49535914  0.54034456    -0.57100
N125        N  0.03527945  0.56066729  0.56860888    -0.36500
N126        N  0.07631178  0.53227741  0.59384003    -0.57100
C127        C  0.04378047  0.43976851  0.55147737     0.27100
C128        C  0.07639353  0.45951863  0.57917550     0.27100
C129        C  0.02347894  0.57346303  0.55307909     0.27100
C130        C  0.05655826  0.59361304  0.58067464     0.27100
C131        C  0.99992795  0.45723602  0.53258498     0.35700
C132        C  0.99235773  0.50921650  0.53313447     0.35700
C133        C  0.08582224  0.50953170  0.60496390     0.35700
C134        C  0.07862055  0.56183216  0.60544736     0.35700
C135        C  0.06539293  0.42044018  0.55325457    -0.21800
C136        C  0.08590958  0.43280805  0.57074427    -0.21800
C137        C  0.03710911  0.61492155  0.55532468    -0.21800
C138        C  0.05818088  0.62772970  0.57268087    -0.21800
C139        C  0.96729515  0.44725773  0.52013917    -0.22800
C140        C  0.96269425  0.48031988  0.52039842    -0.22800
C141        C  0.09488135  0.52510328  0.62370971    -0.22800
C142        C  0.09038131  0.55834655  0.62400876    -0.22800
C143        C  0.01489511  0.43141678  0.53655997    -0.18200
C144        C  0.08848000  0.47631794  0.59809863    -0.18200
C145        C  0.07242268  0.59320499  0.59920254    -0.18200
C146        C  0.99805965  0.54790006  0.53767261    -0.18200
H147        H  0.06542000  0.39876877  0.54320665     0.14700
H148        H  0.10485603  0.42243430  0.57673204     0.14700
H149        H  0.03207585  0.63385767  0.54553327     0.14700
H150        H  0.07256685  0.65856624  0.57883417     0.14700
H151        H  0.94835282  0.41895373  0.51188336     0.13000
H152        H  0.93971820  0.48254151  0.51235656     0.13000
H153        H  0.10412478  0.51393446  0.63583146     0.13000
H154        H  0.09536413  0.57782097  0.63642470     0.13000
H155        H  0.03585625  0.47871083  0.57049812     0.26300
H156        H  0.02674128  0.53044086  0.57141287     0.26300
C157        C  0.74591835  0.98549995  0.64165600     0.80300
N158        N  0.74957701  0.95631155  0.63260074    -0.78000
C159        C  0.77683826  0.94671747  0.63896791     0.82800
N160        N  0.80138479  0.96695815  0.65451745    -0.77900
C161        C  0.79864600  0.99687251  0.66363471     0.82900
N162        N  0.77079100  0.00583840  0.65712806    -0.79600
C163        C  0.81303070  0.79823656  0.65878542     0.80300
N164        N  0.81414663  0.83155343  0.65086216    -0.78000
C165        C  0.78912084  0.82564365  0.63545580     0.82800
N166        N  0.76300445  0.78683712  0.62834819    -0.77900
C167        C  0.76091143  0.75357250  0.63632090     0.82900
N168        N  0.78629369  0.75952000  0.65137976    -0.79600
C169        C  0.76969660  0.88168895  0.59812463     0.80300
N170        N  0.77065715  0.91170309  0.60884273    -0.78000
C171        C  0.78073498  0.91641208  0.62794243     0.82800
N172        N  0.78967483  0.89030791  0.63670631    -0.77900
C173        C  0.78829275  0.85960973  0.62610736     0.82900
N174        N  0.77801844  0.85541345  0.60697067    -0.79600
O175        O  0.91184977  0.77181605  0.76628608    -0.74300
O176        O  0.98059124  0.76674762  0.72754206    -0.74300
O177        O  0.98018049  0.76756745  0.76668401    -0.74400
O178        O  0.91222962  0.77061365  0.72723367    -0.74400
O179        O  0.95207272  0.83975903  0.72657218    -0.74400
O180        O  0.02091638  0.83669065  0.76658662    -0.74400
O181        O  0.02121453  0.83589167  0.72713082    -0.74300
O182        O  0.95200308  0.84099308  0.76609438    -0.74400
Ni183      Ni  0.94485903  0.76685355  0.74696957     1.25400
Ni184      Ni  0.98805456  0.84088063  0.74659103     1.25400
C185        C  0.92004774  0.80707847  0.77245341     0.87900
C186        C  0.01239373  0.80042012  0.72092637     0.87800
C187        C  0.01208575  0.80131887  0.77303394     0.87800
C188        C  0.92030084  0.80533933  0.72045715     0.88000
O189        O  0.98424521  0.21193126  0.72540175    -0.74300
O190        O  0.91373442  0.14295985  0.76639070    -0.74300
O191        O  0.98674961  0.21708856  0.76415489    -0.74400
O192        O  0.91095627  0.13742707  0.72750025    -0.74400
O193        O  0.94475579  0.10514847  0.72826007    -0.74400
O194        O  0.02118873  0.18557431  0.76538224    -0.74400
O195        O  0.94736067  0.11055887  0.76754964    -0.74300
O196        O  0.01864864  0.18024422  0.72622003    -0.74400
Ni197      Ni  0.94772942  0.17838753  0.74579008     1.25400
Ni198      Ni  0.98422167  0.14414296  0.74687581     1.25400
C199        C  0.01372459  0.20837253  0.71936961     0.87900
C200        C  0.91865589  0.11529672  0.77376943     0.87800
C201        C  0.01671481  0.21495925  0.77075494     0.87800
C202        C  0.91474966  0.10779203  0.72200626     0.88000
O203        O  0.28127270  0.16723374  0.76931228    -0.74300
O204        O  0.28486533  0.09816704  0.72981304    -0.74300
O205        O  0.28579180  0.09854969  0.76935502    -0.74400
O206        O  0.28044520  0.16703175  0.72997068    -0.74400
O207        O  0.34972965  0.20712649  0.72987484    -0.74400
O208        O  0.35492057  0.13950066  0.76896214    -0.74400
O209        O  0.35408843  0.13868436  0.72980522    -0.74300
O210        O  0.35049240  0.20752647  0.76871576    -0.74400
Ni211      Ni  0.28054463  0.13115099  0.74960442     1.25400
Ni212      Ni  0.35465022  0.17450674  0.74929502     1.25400
C213        C  0.31551312  0.19942981  0.77522451     0.87900
C214        C  0.32020231  0.10687327  0.72342130     0.87800
C215        C  0.32139130  0.10799163  0.77577918     0.87800
C216        C  0.31449203  0.19928855  0.72390911     0.88000
C217        C  0.32503574  0.31569786  0.83228007     0.80300
N218        N  0.29133298  0.31457775  0.83980085    -0.78000
C219        C  0.29709570  0.34068749  0.85467376     0.82800
N220        N  0.33574129  0.36726383  0.86170329    -0.77900
C221        C  0.36921212  0.36920596  0.85428791     0.82900
N222        N  0.36364717  0.34293151  0.83973762    -0.79600
C223        C  0.13579250  0.38398755  0.85236132     0.80300
N224        N  0.11475431  0.35917890  0.83699327    -0.78000
C225        C  0.12544849  0.33348866  0.82932229     0.82800
N226        N  0.15724724  0.33246162  0.83745244    -0.77900
C227        C  0.17795285  0.35672889  0.85299636     0.82900
N228        N  0.16710097  0.38233190  0.86035022    -0.79600
C229        C  0.24552888  0.36332924  0.89258289     0.80300
N230        N  0.21575903  0.36390077  0.88233214    -0.78000
C231        C  0.20916877  0.35304788  0.86330867     0.82800
N232        N  0.23322796  0.34195600  0.85410126    -0.77900
C233        C  0.26352443  0.34166402  0.86428564     0.82900
N234        N  0.26940498  0.35257768  0.88333302    -0.79600
N235        N  0.66130003  0.08000200  0.93131237    -0.36500
N236        N  0.59498000  0.05452497  0.90231721    -0.57100
N237        N  0.55693942  0.08567395  0.92789299    -0.36500
N238        N  0.62566136  0.11570414  0.95538682    -0.57100
C239        C  0.67626503  0.06917152  0.91629056     0.27100
C240        C  0.69328500  0.10295594  0.94379418     0.27100
C241        C  0.53168799  0.07485092  0.91227159     0.27100
C242        C  0.54864878  0.10831901  0.93980941     0.27100
C243        C  0.61433718  0.03748646  0.89406796     0.35700
C244        C  0.55892055  0.03972354  0.89251321     0.35700
C245        C  0.65802933  0.12457724  0.96689222     0.35700
C246        C  0.60270582  0.12662453  0.96535860     0.35700
C247        C  0.71790908  0.08428725  0.91961572    -0.21800
C248        C  0.72863515  0.10565786  0.93684291    -0.21800
C249        C  0.50635050  0.09008147  0.91451220    -0.21800
C250        C  0.51701573  0.11111665  0.93181053    -0.21800
C251        C  0.59074456  0.01221406  0.87870895    -0.22800
C252        C  0.55565557  0.01361905  0.87773231    -0.22800
C253        C  0.65559562  0.14116070  0.98432272    -0.22800
C254        C  0.62063440  0.14255139  0.98333842    -0.22800
C255        C  0.65370144  0.04559362  0.89970282    -0.18200
C256        C  0.69198497  0.12194794  0.96123074    -0.18200
C257        C  0.56804430  0.12605763  0.95787154    -0.18200
C258        C  0.52938250  0.05021665  0.89636260    -0.18200
H259        H  0.73877172  0.08088873  0.91042685     0.14700
H260        H  0.75924227  0.12169600  0.94338519     0.14700
H261        H  0.48243913  0.08637864  0.90474617     0.14700
H262        H  0.50272403  0.12646793  0.93783393     0.14700
H263        H  0.59808992  0.99466393  0.86917330     0.13000
H264        H  0.53066632  0.99737858  0.86730371     0.13000
H265        H  0.67732131  0.15207406  0.99631552     0.13000
H266        H  0.61021810  0.15481417  0.99443702     0.13000
H267        H  0.63078624  0.07127099  0.93309980     0.26300
H268        H  0.57754676  0.07685837  0.93055663     0.26300
C269        C  0.89823323  0.23753287  0.02599004     0.80300
N270        N  0.92738669  0.27259323  0.01632048    -0.78000
C271        C  0.91843468  0.28221656  0.99880510     0.82800
N272        N  0.87984658  0.25711602  0.99126621    -0.77900
C273        C  0.85021892  0.22244296  0.00067085     0.82900
N274        N  0.85962207  0.21253114  0.01799469    -0.79600
C275        C  0.75503986  0.99899878  0.85934352     0.80300
N276        N  0.75883913  0.96838969  0.86653752    -0.78000
C277        C  0.78538193  0.95944282  0.85859579     0.82800
N278        N  0.80921510  0.98186033  0.84325350    -0.77900
C279        C  0.80672872  0.01350015  0.83597136     0.82900
N280        N  0.77941008  0.02170846  0.84405892    -0.79600
C281        C  0.80707068  0.80173813  0.83073277     0.80300
N282        N  0.81167687  0.83636910  0.83921331    -0.78000
C283        C  0.78660351  0.83173924  0.85441233     0.82800
N284        N  0.75756187  0.79314664  0.86090014    -0.77900
C285        C  0.75252078  0.75887700  0.85263315     0.82900
N286        N  0.77775665  0.76340010  0.83777261    -0.79600
C287        C  0.77461703  0.88501929  0.89533294     0.80300
N288        N  0.77815851  0.91833543  0.88656469    -0.78000
C289        C  0.78829701  0.92644599  0.86750264     0.82800
N290        N  0.79434846  0.90026374  0.85674313    -0.77900
C291        C  0.79076824  0.86654404  0.86549763     0.82900
N292        N  0.78074252  0.85931307  0.88462578    -0.79600
N293        N  0.05165455  0.46864113  0.92772041    -0.36500
N294        N  0.01745603  0.50263022  0.95430035    -0.57100
N295        N  0.03767736  0.56637045  0.92541946    -0.36500
N296        N  0.07741736  0.53577926  0.90054443    -0.57100
C297        C  0.04501492  0.44574179  0.94383495     0.27100
C298        C  0.07631088  0.46316502  0.91578860     0.27100
C299        C  0.02729235  0.58053088  0.94091765     0.27100
C300        C  0.06035557  0.59898829  0.91332651     0.27100
C301        C  0.00163726  0.46463155  0.96227977     0.35700
C302        C  0.99414439  0.51672958  0.96103785     0.35700
C303        C  0.08554440  0.51193785  0.88950921     0.35700
C304        C  0.07938860  0.56470984  0.88863226     0.35700
C305        C  0.06596394  0.42566680  0.94223794    -0.21800
C306        C  0.08572935  0.43666101  0.92451830    -0.21800
C307        C  0.04354515  0.62261715  0.93869069    -0.21800
C308        C  0.06444442  0.63430920  0.92126990    -0.21800
C309        C  0.96861910  0.45492744  0.97441077    -0.22800
C310        C  0.96390605  0.48796173  0.97362814    -0.22800
C311        C  0.09341165  0.52619594  0.87052636    -0.22800
C312        C  0.08968331  0.55986139  0.86998810    -0.22800
C313        C  0.01669350  0.43866582  0.95882479    -0.18200
C314        C  0.08754531  0.47856662  0.89661400    -0.18200
C315        C  0.07480110  0.59705981  0.89471406    -0.18200
C316        C  0.00048028  0.55561186  0.95613144    -0.18200
H317        H  0.06596877  0.40435463  0.95254773     0.14700
H318        H  0.10410665  0.42560393  0.91853982     0.14700
H319        H  0.04009746  0.64262227  0.94847285     0.14700
H320        H  0.08025570  0.66519414  0.91502840     0.14700
H321        H  0.94949622  0.42675559  0.98276157     0.13000
H322        H  0.94052960  0.49023205  0.98124067     0.13000
H323        H  0.10135247  0.51388055  0.85840063     0.13000
H324        H  0.09422849  0.57872782  0.85736875     0.13000
H325        H  0.03703037  0.48399000  0.92438869     0.26300
H326        H  0.02710068  0.53556220  0.92254715     0.26300
C327        C  0.88899251  0.63938856  0.02211833     0.80300
N328        N  0.91336525  0.62800394  0.01349285    -0.78000
C329        C  0.90517167  0.61224758  0.99517927     0.82800
N330        N  0.87217998  0.60802030  0.98554590    -0.77900
C331        C  0.84753635  0.61916927  0.99382317     0.82900
N332        N  0.85598205  0.63455202  0.01217253    -0.79600
N333        N  0.62487324  0.50663459  0.95145686    -0.36500
N334        N  0.66220282  0.57916272  0.92579132    -0.57100
N335        N  0.58848722  0.53843050  0.90129543    -0.36500
N336        N  0.55389462  0.46367468  0.92532785    -0.57100
C337        C  0.66494248  0.52784165  0.95746826     0.27100
C338        C  0.60696948  0.46679062  0.95748738     0.27100
C339        C  0.61424946  0.57188843  0.89013600     0.27100
C340        C  0.55659951  0.51052632  0.88993388     0.27100
C341        C  0.69066323  0.59480197  0.94021184     0.35700
C342        C  0.67131420  0.61156425  0.91423825     0.35700
C343        C  0.53985257  0.43543527  0.93983921     0.35700
C344        C  0.52093161  0.45193133  0.91368567     0.35700
C345        C  0.67227983  0.50129647  0.96774385    -0.21800
C346        C  0.63569094  0.46283179  0.96778885    -0.21800
C347        C  0.59797403  0.56558854  0.87154691    -0.21800
C348        C  0.56152579  0.52684908  0.87142882    -0.21800
C349        C  0.71804352  0.63731368  0.93782513    -0.22800
C350        C  0.70577723  0.64796385  0.92136794    -0.22800
C351        C  0.49789942  0.40552108  0.93736960    -0.22800
C352        C  0.48589358  0.41593774  0.92078242    -0.22800
C353        C  0.69499401  0.57061777  0.95426054    -0.18200
C354        C  0.56524030  0.43399119  0.95420609    -0.18200
C355        C  0.52254722  0.47129587  0.89596287    -0.18200
C356        C  0.65159914  0.60822836  0.89636285    -0.18200
H357        H  0.70112037  0.50871668  0.97441615     0.14700
H358        H  0.63096538  0.43499680  0.97445573     0.14700
H359        H  0.61103663  0.58664514  0.85931284     0.14700
H360        H  0.54107523  0.51229643  0.85909458     0.14700
H361        H  0.74464578  0.65826384  0.94676457     0.13000
H362        H  0.72105897  0.67882107  0.91512065     0.13000
H363        H  0.47820937  0.37857029  0.94638032     0.13000
H364        H  0.45501907  0.39860286  0.91450630     0.13000
H365        H  0.61018059  0.51899698  0.94427240     0.26300
H366        H  0.59162416  0.53535684  0.91601778     0.26300
C367        C  0.47649408  0.23246086  0.02128974     0.80300
N368        N  0.48872054  0.20844540  0.01312663    -0.78000
C369        C  0.51043622  0.21996364  0.99622606     0.82800
N370        N  0.51953484  0.25563452  0.98750424    -0.77900
C371        C  0.50778603  0.28007249  0.99530091     0.82900
N372        N  0.48633075  0.26845902  0.01231350    -0.79600
C373        C  0.11347868  0.79009748  0.83255617     0.80300
N374        N  0.14617725  0.82416868  0.84149642    -0.78000
C375        C  0.16645530  0.81893610  0.85626492     0.82800
N376        N  0.15450138  0.78020283  0.86177827    -0.77900
C377        C  0.12291786  0.74618873  0.85296766     0.82900
N378        N  0.10210438  0.75119295  0.83843685    -0.79600
C379        C  0.33221976  0.00712148  0.83586936     0.80300
N380        N  0.37066750  0.01861281  0.84255735    -0.78000
C381        C  0.37478854  0.99723176  0.85716587     0.82800
N382        N  0.33997809  0.96467011  0.86518528    -0.77900
C383        C  0.30163598  0.95256124  0.85875525     0.82900
N384        N  0.29763429  0.97361006  0.84399084    -0.79600
C385        C  0.24189870  0.87204281  0.89551159     0.80300
N386        N  0.20701156  0.84498032  0.88552740    -0.78000
C387        C  0.20082102  0.85335250  0.86714293     0.82800
N388        N  0.23044540  0.88942898  0.85837222    -0.77900
C389        C  0.26580186  0.91683058  0.86831924     0.82900
N390        N  0.27128314  0.90775013  0.88669257    -0.79600
C391        C  0.06623330  0.27620461  0.33607168     0.80300
N392        N  0.03215290  0.24191413  0.34412726    -0.78000
C393        C  0.01182557  0.24637218  0.35912658     0.82800
N394        N  0.02517414  0.28489791  0.36579691    -0.77900
C395        C  0.05817589  0.31926210  0.35777088     0.82900
N396        N  0.07897482  0.31473398  0.34306505    -0.79600
C397        C  0.84560576  0.05984816  0.33320762     0.80300
N398        N  0.88000758  0.09225409  0.34220181    -0.78000
C399        C  0.87524598  0.11315104  0.35693164     0.82800
N400        N  0.83655976  0.10211618  0.36228675    -0.77900
C401        C  0.80237818  0.07101978  0.35326856     0.82900
N402        N  0.80706085  0.04968248  0.33892872    -0.79600
C403        C  0.93178910  0.18853022  0.39634448     0.80300
N404        N  0.96755884  0.21680614  0.38723477    -0.78000
C405        C  0.97553924  0.21096196  0.36874601     0.82800
N406        N  0.94679715  0.17606602  0.35888179    -0.77900
C407        C  0.91037105  0.14740464  0.36780442     0.82900
N408        N  0.90307130  0.15414967  0.38636707    -0.79600
C409        C  0.37300409  0.27080021  0.33453465     0.80300
N410        N  0.37136845  0.23670922  0.34190583    -0.78000
C411        C  0.39654400  0.24144065  0.35708540     0.82800
N412        N  0.42291498  0.27973090  0.36465246    -0.77900
C413        C  0.42502436  0.31358103  0.35751572     0.82900
N414        N  0.39980284  0.30882048  0.34259348    -0.79600
C415        C  0.42783453  0.07332658  0.35546917     0.80300
N416        N  0.42497468  0.10371429  0.36362490    -0.78000
C417        C  0.39829042  0.11345952  0.35658027     0.82800
N418        N  0.37358564  0.09212435  0.34115779    -0.77900
C419        C  0.37553811  0.06079344  0.33297935     0.82900
N420        N  0.40268286  0.05167816  0.34032616    -0.79600
C421        C  0.41014135  0.18383396  0.39583375     0.80300
N422        N  0.40490841  0.21139855  0.38613724    -0.78000
C423        C  0.39480687  0.20648376  0.36695946     0.82800
N424        N  0.39041572  0.17348969  0.35709595    -0.77900
C425        C  0.39605881  0.14580446  0.36672713     0.82900
N426        N  0.40609772  0.15146421  0.38587440    -0.79600
N427        N  0.52002716  0.99161464  0.42754130    -0.36500
N428        N  0.58723749  0.01988939  0.39954565    -0.57100
N429        N  0.62330069  0.98639082  0.42469514    -0.36500
N430        N  0.55959523  0.96407744  0.45427284    -0.57100
C431        C  0.51170156  0.01379015  0.41532307     0.27100
C432        C  0.49692789  0.98389515  0.44371777     0.27100
C433        C  0.65460581  0.00815510  0.41183734     0.27100
C434        C  0.63907123  0.97724279  0.43998038     0.27100
C435        C  0.56166380  0.02615915  0.38879104     0.35700
C436        C  0.61709830  0.02421846  0.38745721     0.35700
C437        C  0.52219697  0.94700368  0.46305455     0.35700
C438        C  0.57687725  0.94407563  0.46146191     0.35700
C439        C  0.48282339  0.02016651  0.42388873    -0.21800
C440        C  0.47349683  0.00125913  0.44178978    -0.21800
C441        C  0.69074128  0.01283143  0.41910356    -0.21800
C442        C  0.68084430  0.99313459  0.43682159    -0.21800
C443        C  0.57571505  0.03519608  0.36978149    -0.22800
C444        C  0.61093065  0.03400536  0.36894211    -0.22800
C445        C  0.51622090  0.91683225  0.47621827    -0.22800
C446        C  0.55092777  0.91502452  0.47522342    -0.22800
C447        C  0.52706317  0.02584462  0.39614943    -0.18200
C448        C  0.49321083  0.95805732  0.45929128    -0.18200
C449        C  0.61592780  0.95187503  0.45588799    -0.18200
C450        C  0.65093106  0.02148782  0.39319269    -0.18200
H451        H  0.46917399  0.03605269  0.41774241     0.14700
H452        H  0.45128553  0.99963171  0.45205941     0.14700
H453        H  0.72098473  0.02819145  0.41220924     0.14700
H454        H  0.70183964  0.99034864  0.44621854     0.14700
H455        H  0.56218828  0.04219719  0.35782053     0.13000
H456        H  0.62991951  0.03986565  0.35621080     0.13000
H457        H  0.48941447  0.89764582  0.48538515     0.13000
H458        H  0.55618074  0.89429508  0.48350005     0.13000
H459        H  0.53784301  0.97955625  0.42442581     0.26300
H460        H  0.59223657  0.97557709  0.42255486     0.26300
C461        C  0.70564367  0.84495081  0.51938321     0.80300
N462        N  0.69223346  0.86750063  0.51067660    -0.78000
C463        C  0.67259795  0.85574677  0.49319871     0.82800
N464        N  0.66640791  0.82100542  0.48458457    -0.77900
C465        C  0.67926739  0.79797892  0.49307036     0.82900
N466        N  0.69877548  0.81011928  0.51049372    -0.79600
N467        N  0.14091347  0.60590237  0.42950611    -0.36500
N468        N  0.11141750  0.53640866  0.40274370    -0.57100
N469        N  0.14780881  0.50329867  0.42795701    -0.36500
N470        N  0.17172286  0.56938535  0.45633990    -0.57100
C471        C  0.11724646  0.61280260  0.41755499     0.27100
C472        C  0.15107669  0.63123064  0.44503995     0.27100
C473        C  0.12604525  0.47117804  0.41553376     0.27100
C474        C  0.15749631  0.48861139  0.44348682     0.27100
C475        C  0.10211386  0.55982884  0.39201252     0.35700
C476        C  0.10645645  0.50567077  0.39107582     0.35700
C477        C  0.18943657  0.60747725  0.46440371     0.35700
C478        C  0.19156430  0.55231174  0.46394808     0.35700
C479        C  0.11251499  0.64315664  0.42566586    -0.21800
C480        C  0.13390014  0.65478417  0.44295933    -0.21800
C481        C  0.12212853  0.43573988  0.42326543    -0.21800
C482        C  0.14205931  0.44679805  0.44087929    -0.21800
C483        C  0.09041329  0.54337701  0.37347651    -0.22800
C484        C  0.09329578  0.50914533  0.37287047    -0.22800
C485        C  0.21998655  0.61421280  0.47752197    -0.22800
C486        C  0.22127029  0.57916433  0.47725403    -0.22800
C487        C  0.10219955  0.59466877  0.39897160    -0.18200
C488        C  0.17826046  0.63620205  0.46023029    -0.18200
C489        C  0.18292315  0.51260853  0.45917341    -0.18200
C490        C  0.11138286  0.47322865  0.39698438    -0.18200
H491        H  0.09610420  0.65632842  0.41962235     0.14700
H492        H  0.13702635  0.67838963  0.45275354     0.14700
H493        H  0.10684594  0.40509685  0.41681423     0.14700
H494        H  0.14529007  0.42650190  0.45057697     0.14700
H495        H  0.08055653  0.55466331  0.36165657     0.13000
H496        H  0.08609879  0.48888231  0.36051927     0.13000
H497        H  0.23959189  0.64164323  0.48624975     0.13000
H498        H  0.24200081  0.57421770  0.48571856     0.13000
H499        H  0.15207242  0.58724538  0.42663977     0.26300
H500        H  0.15804213  0.53406399  0.42538763     0.26300
C501        C  0.29161022  0.83873220  0.52749588     0.80300
N502        N  0.32850154  0.86704159  0.51870695    -0.78000
C503        C  0.33873771  0.85811542  0.50134220     0.82800
N504        N  0.31200674  0.82085115  0.49301272    -0.77900
C505        C  0.27539729  0.79230366  0.50135893     0.82900
N506        N  0.26530979  0.80139168  0.51867688    -0.79600
N507        N  0.56558376  0.57171353  0.45524438    -0.36500
N508        N  0.63408407  0.60819210  0.42744465    -0.57100
N509        N  0.59219155  0.53223386  0.40457286    -0.36500
N510        N  0.52144293  0.49786089  0.43081812    -0.57100
C511        C  0.58617401  0.61244329  0.46003840     0.27100
C512        C  0.52618332  0.55366252  0.46189449     0.27100
C513        C  0.62314882  0.55812322  0.39226133     0.27100
C514        C  0.56307025  0.49929574  0.39409474     0.27100
C515        C  0.65126049  0.63726739  0.44155138     0.35700
C516        C  0.66532377  0.61647342  0.41529037     0.35700
C517        C  0.49572853  0.48463887  0.44630046     0.35700
C518        C  0.50942145  0.46383318  0.41993712     0.35700
C519        C  0.55981970  0.62016182  0.47020611    -0.21800
C520        C  0.52192972  0.58305062  0.47136188    -0.21800
C521        C  0.61403846  0.54102787  0.37379414    -0.21800
C522        C  0.57606888  0.50382683  0.37495415    -0.21800
C523        C  0.69357642  0.66419845  0.43839073    -0.22800
C524        C  0.70255128  0.65095061  0.42174684    -0.22800
C525        C  0.46723285  0.44203750  0.44528270    -0.22800
C526        C  0.47583746  0.42884034  0.42851845    -0.22800
C527        C  0.62830855  0.64270162  0.45580668    -0.18200
C528        C  0.49415653  0.51125430  0.45986148    -0.18200
C529        C  0.52588656  0.46458141  0.40151529    -0.18200
C530        C  0.65992581  0.59608273  0.39742255    -0.18200
H531        H  0.56695994  0.64957489  0.47602285     0.14700
H532        H  0.49429556  0.57840505  0.47822071     0.14700
H533        H  0.63278870  0.55398759  0.36083154     0.14700
H534        H  0.55989806  0.48254009  0.36305739     0.14700
H535        H  0.71540058  0.69118572  0.44690665     0.13000
H536        H  0.73279420  0.66567765  0.41489096     0.13000
H537        H  0.44207662  0.42277204  0.45527161     0.13000
H538        H  0.45877288  0.39727655  0.42305668     0.13000
H539        H  0.57811741  0.55679434  0.44840980     0.26300
H540        H  0.59180652  0.53594287  0.41946267     0.26300
C541        C  0.29071572  0.42640334  0.52451998     0.80300
N542        N  0.26594071  0.43634163  0.51514751    -0.78000
C543        C  0.27750037  0.45616038  0.49773058     0.82800
N544        N  0.31416265  0.46612896  0.48990641    -0.77900
C545        C  0.33934397  0.45677387  0.49895130     0.82900
N546        N  0.32758596  0.43695903  0.51632487    -0.79600
C547        C  0.85433770  0.75149976  0.33246412     0.80300
N548        N  0.88782014  0.75211444  0.34012041    -0.78000
C549        C  0.88134008  0.72378278  0.35414323     0.82800
N550        N  0.84213146  0.69552021  0.36017168    -0.77900
C551        C  0.80899288  0.69412198  0.35262743     0.82900
N552        N  0.81533959  0.72245402  0.33900393    -0.79600
C553        C  0.04688527  0.68628697  0.35623988     0.80300
N554        N  0.01585666  0.68901711  0.36380637    -0.78000
C555        C  0.00551852  0.71470906  0.35599457     0.82800
N556        N  0.02695579  0.73862619  0.34045668    -0.77900
C557        C  0.05880194  0.73697099  0.33278131     0.82900
N558        N  0.06850815  0.71073886  0.34080931    -0.79600
C559        C  0.93150105  0.70189344  0.39351166     0.80300
N560        N  0.96408227  0.70492268  0.38426462    -0.78000
C561        C  0.97266151  0.71726795  0.36545741     0.82800
N562        N  0.94786417  0.72658460  0.35548455    -0.77900
C563        C  0.91473199  0.72347333  0.36469871     0.82900
N564        N  0.90666660  0.71055750  0.38353096    -0.79600
O565        O  0.26552620  0.29445962  0.26885441    -0.74300
O566        O  0.19808949  0.29764633  0.22905931    -0.74300
O567        O  0.19736684  0.29865064  0.26832233    -0.74400
O568        O  0.26595921  0.29323598  0.22977742    -0.74400
O569        O  0.22532853  0.22406393  0.22978559    -0.74400
O570        O  0.15681104  0.22957647  0.26908608    -0.74400
O571        O  0.15677480  0.22859126  0.22938719    -0.74300
O572        O  0.22588126  0.22531954  0.26941370    -0.74400
Ni573      Ni  0.23304129  0.29829730  0.24900705     1.25400
Ni574      Ni  0.18963881  0.22431844  0.24946084     1.25400
C575        C  0.25761053  0.25972228  0.27559752     0.87900
C576        C  0.16659807  0.26392966  0.22240021     0.87800
C577        C  0.16584873  0.26520137  0.27522052     0.87800
C578        C  0.25716544  0.25798137  0.22333717     0.88000
O579        O  0.89629522  0.89762182  0.26746377    -0.74300
O580        O  0.89380331  0.96648423  0.22695080    -0.74300
O581        O  0.89413853  0.96803593  0.26658667    -0.74400
O582        O  0.89625286  0.89613827  0.22790994    -0.74400
O583        O  0.82701510  0.85694112  0.22845577    -0.74400
O584        O  0.82494652  0.92886197  0.26630865    -0.74400
O585        O  0.82464428  0.92651779  0.22706494    -0.74300
O586        O  0.82711176  0.85943009  0.26749280    -0.74400
Ni587      Ni  0.89767515  0.93356663  0.24719877     1.25400
Ni588      Ni  0.82362882  0.89168198  0.24730193     1.25400
C589        C  0.86174279  0.86681278  0.27412270     0.87900
C590        C  0.85855351  0.95791978  0.22040493     0.87800
C591        C  0.85901841  0.96023097  0.27287067     0.87800
C592        C  0.86176516  0.86390752  0.22219414     0.88000
C593        C  0.06690632  0.27719641  0.16238218     0.80300
N594        N  0.03201297  0.24370433  0.15430827    -0.78000
C595        C  0.01027002  0.24975713  0.14055523     0.82800
N596        N  0.02298110  0.28891393  0.13524015    -0.77900
C597        C  0.05681379  0.32234057  0.14328372     0.82900
N598        N  0.07918124  0.31641718  0.15661431    -0.79600
C599        C  0.84315208  0.05860552  0.16124204     0.80300
N600        N  0.87770765  0.09342633  0.15372261    -0.78000
C601        C  0.87351368  0.11557514  0.13949487     0.82800
N602        N  0.83506226  0.10323796  0.13306034    -0.77900
C603        C  0.80048343  0.06954949  0.14052510     0.82900
N604        N  0.80473381  0.04699975  0.15445622    -0.79600
C605        C  0.93144518  0.19586297  0.10233899     0.80300
N606        N  0.90275226  0.16043712  0.11154581    -0.78000
C607        C  0.90908541  0.15180539  0.12984309     0.82800
N608        N  0.94501510  0.17954502  0.13937450    -0.77900
C609        C  0.97412730  0.21555169  0.13025714     0.82900
N610        N  0.96690208  0.22340775  0.11191645    -0.79600
C611        C  0.36392198  0.26652212  0.16127400     0.80300
N612        N  0.36297137  0.23321722  0.15339544    -0.78000
C613        C  0.38689545  0.23905341  0.13753081     0.82800
N614        N  0.41117380  0.27764158  0.12978326    -0.77900
C615        C  0.41247231  0.31074659  0.13741170     0.82900
N616        N  0.38856505  0.30491336  0.15309535    -0.79600
C617        C  0.42882458  0.07651422  0.13669507     0.80300
N618        N  0.42532835  0.10706585  0.12901293    -0.78000
C619        C  0.39851565  0.11623554  0.13663044     0.82800
N620        N  0.37435836  0.09413463  0.15207554    -0.77900
C621        C  0.37704740  0.06293413  0.15986614     0.82900
N622        N  0.40433406  0.05454978  0.15202960    -0.79600
C623        C  0.40378011  0.18569617  0.09813039     0.80300
N624        N  0.40354583  0.15470019  0.10767351    -0.78000
C625        C  0.39443178  0.14808697  0.12692704     0.82800
N626        N  0.38613898  0.17355062  0.13697977    -0.77900
C627        C  0.38690942  0.20520216  0.12743781     0.82900
N628        N  0.39595701  0.21090793  0.10821392    -0.79600
C629        C  0.27833534  0.83108347  0.97088012     0.80300
N630        N  0.24947959  0.79453912  0.97956264    -0.78000
C631        C  0.25757085  0.78378326  0.99694223     0.82800
N632        N  0.29484417  0.80977365  0.00555450    -0.77900
C633        C  0.32412233  0.84620353  0.99718617     0.82900
N634        N  0.31581477  0.85668277  0.97971926    -0.79600
N635        N  0.12033339  0.59546605  0.06624923    -0.36500
N636        N  0.15494983  0.56193840  0.04008561    -0.57100
N637        N  0.13713406  0.49974128  0.06980804    -0.36500
N638        N  0.09659336  0.52965717  0.09431222    -0.57100
C639        C  0.12748555  0.61870909  0.05021628     0.27100
C640        C  0.09591250  0.60122817  0.07815261     0.27100
C641        C  0.14677446  0.48500096  0.05427074     0.27100
C642        C  0.11599791  0.46783413  0.08244535     0.27100
C643        C  0.17108406  0.59994492  0.03209519     0.35700
C644        C  0.17839330  0.54794072  0.03353736     0.35700
C645        C  0.08808338  0.55373996  0.10494859     0.35700
C646        C  0.09627943  0.50219942  0.10671211     0.35700
C647        C  0.10704116  0.63926156  0.05178829    -0.21800
C648        C  0.08706383  0.62822184  0.06943994    -0.21800
C649        C  0.13163109  0.44327870  0.05703164    -0.21800
C650        C  0.11211160  0.43238981  0.07479465    -0.21800
C651        C  0.20435615  0.60972515  0.02014480    -0.22800
C652        C  0.20897336  0.57672895  0.02105852    -0.22800
C653        C  0.08147811  0.54100068  0.12416111    -0.22800
C654        C  0.08673143  0.50831564  0.12528813    -0.22800
C655        C  0.15630046  0.62602899  0.03549888    -0.18200
C656        C  0.08504538  0.58625610  0.09739600    -0.18200
C657        C  0.10254701  0.47049863  0.10121628    -0.18200
C658        C  0.17199341  0.50915470  0.03848807    -0.18200
H659        H  0.10780720  0.66116000  0.04159156     0.14700
H660        H  0.06926788  0.63991069  0.07544770     0.14700
H661        H  0.13483391  0.42297205  0.04734900     0.14700
H662        H  0.09718935  0.40191971  0.08142702     0.14700
H663        H  0.22376728  0.63794900  0.01186943     0.13000
H664        H  0.23261742  0.57456418  0.01365261     0.13000
H665        H  0.07369689  0.55389610  0.13609601     0.13000
H666        H  0.08384376  0.49105222  0.13828002     0.13000
H667        H  0.13468367  0.57989528  0.06963049     0.26300
H668        H  0.14724148  0.53056385  0.07229473     0.26300
C669        C  0.70286227  0.84112488  0.97258814     0.80300
N670        N  0.69679187  0.80666365  0.98167927    -0.78000
C671        C  0.67821432  0.79521357  0.99937251     0.82800
N672        N  0.66539826  0.81832902  0.00778136    -0.77900
C673        C  0.67071330  0.85247895  0.99891257     0.82900
N674        N  0.68953257  0.86369854  0.98128013    -0.79600
N675        N  0.51596247  0.98665075  0.06541105    -0.36500
N676        N  0.55128349  0.95226419  0.04026668    -0.57100
N677        N  0.61846368  0.97972208  0.06874677    -0.36500
N678        N  0.58653231  0.01973346  0.09209502    -0.57100
C679        C  0.48977794  0.97412852  0.05004689     0.27100
C680        C  0.50943058  0.01177095  0.07644936     0.27100
C681        C  0.63290273  0.96866430  0.05362124     0.27100
C682        C  0.65089985  0.00296224  0.08086195     0.27100
C683        C  0.51259246  0.93287947  0.03261355     0.35700
C684        C  0.56822346  0.93143243  0.03377086     0.35700
C685        C  0.56319644  0.03015805  0.10214878     0.35700
C686        C  0.61713931  0.02548462  0.10414787     0.35700
C687        C  0.46629983  0.99155639  0.05127446    -0.21800
C688        C  0.47857691  0.01518143  0.06790396    -0.21800
C689        C  0.67495844  0.98494671  0.05615322    -0.21800
C690        C  0.68632351  0.00655769  0.07334145    -0.21800
C691        C  0.50524886  0.90001617  0.02098602    -0.22800
C692        C  0.54062168  0.89929168  0.02161647    -0.22800
C693        C  0.57969012  0.04353942  0.12058495    -0.22800
C694        C  0.61376394  0.04044637  0.12186661    -0.22800
C695        C  0.48390850  0.94461373  0.03586305    -0.18200
C696        C  0.52800412  0.02898663  0.09475054    -0.18200
C697        C  0.64908538  0.01912808  0.09903474    -0.18200
C698        C  0.60847787  0.94131469  0.03847496    -0.18200
H699        H  0.44216711  0.98700370  0.04141201     0.14700
H700        H  0.46544150  0.03214063  0.07325591     0.14700
H701        H  0.69519031  0.98103661  0.04674098     0.14700
H702        H  0.71714153  0.02274318  0.07967460     0.14700
H703        H  0.47718553  0.87843820  0.01304672     0.13000
H704        H  0.54518473  0.87714573  0.01425899     0.13000
H705        H  0.56842975  0.05448018  0.13192599     0.13000
H706        H  0.63389228  0.04855100  0.13435729     0.13000
H707        H  0.53485795  0.97605837  0.06889831     0.26300
H708        H  0.58765768  0.96939756  0.07134532     0.26300
N709        N  0.56012056  0.57115105  0.04035312    -0.36500
N710        N  0.62557477  0.60948179  0.06976368    -0.57100
N711        N  0.58005732  0.53495279  0.09390786    -0.36500
N712        N  0.51229877  0.49910409  0.06610547    -0.57100
C713        C  0.58243001  0.61123211  0.03429191     0.27100
C714        C  0.52142037  0.55323637  0.03275771     0.27100
C715        C  0.61031859  0.56106224  0.10643187     0.27100
C716        C  0.55049108  0.50184954  0.10420779     0.27100
C717        C  0.64481575  0.63729378  0.05521384     0.35700
C718        C  0.65510470  0.61857839  0.08317188     0.35700
C719        C  0.48743061  0.48557447  0.05031504     0.35700
C720        C  0.49872620  0.46554911  0.07764242     0.35700
C721        C  0.55796588  0.61846181  0.02226817    -0.21800
C722        C  0.51951530  0.58193902  0.02132657    -0.21800
C723        C  0.60015640  0.54411386  0.12494276    -0.21800
C724        C  0.56238255  0.50666529  0.12353108    -0.21800
C725        C  0.68666669  0.66432567  0.05941007    -0.22800
C726        C  0.69322360  0.65247645  0.07711434    -0.22800
C727        C  0.45777322  0.44331988  0.05184400    -0.22800
C728        C  0.46498119  0.43058206  0.06914014    -0.22800
C729        C  0.62422709  0.64156579  0.03929723    -0.18200
C730        C  0.48775715  0.51167908  0.03577426    -0.18200
C731        C  0.51411461  0.46663374  0.09643183    -0.18200
C732        C  0.64778560  0.59861544  0.10138621    -0.18200
H733        H  0.56657133  0.64728648  0.01517165     0.14700
H734        H  0.49301366  0.57731121  0.01331923     0.14700
H735        H  0.61823487  0.55720577  0.13807048     0.14700
H736        H  0.54569945  0.48533059  0.13536241     0.14700
H737        H  0.70982386  0.69038650  0.05078355     0.13000
H738        H  0.72260085  0.66755964  0.08478256     0.13000
H739        H  0.43292398  0.42396555  0.04174571     0.13000
H740        H  0.44680775  0.39934921  0.07498878     0.13000
H741        H  0.57100286  0.55661728  0.04882760     0.26300
H742        H  0.58069048  0.53846701  0.07898365     0.26300
C743        C  0.28568043  0.43330975  0.97038554     0.80300
N744        N  0.32210317  0.44278156  0.97874559    -0.78000
C745        C  0.33339727  0.46115831  0.99649134     0.82800
N746        N  0.30787179  0.46988891  0.00579006    -0.77900
C747        C  0.27150314  0.46063668  0.99781007     0.82900
N748        N  0.26067712  0.44249623  0.98003475    -0.79600
C749        C  0.84728676  0.74384496  0.16585151     0.80300
N750        N  0.80779448  0.71710200  0.15924223    -0.78000
C751        C  0.80013869  0.69099813  0.14425365     0.82800
N752        N  0.83243254  0.69254641  0.13546814    -0.77900
C753        C  0.87201055  0.71882735  0.14162782     0.82900
N754        N  0.87971828  0.74469419  0.15695463    -0.79600
C755        C  0.03965088  0.68526794  0.13974068     0.80300
N756        N  0.00773634  0.68656620  0.13228734    -0.78000
C757        C  0.99688355  0.71190352  0.13999116     0.82800
N758        N  0.01837326  0.73650704  0.15533973    -0.77900
C759        C  0.05087904  0.73584712  0.16287353     0.82900
N760        N  0.06128598  0.71017905  0.15495579    -0.79600
C761        C  0.92407306  0.69947125  0.10196204     0.80300
N762        N  0.89801854  0.70668241  0.11189383    -0.78000
C763        C  0.90491172  0.71809375  0.13096974     0.82800
N764        N  0.93801966  0.72161437  0.14035101    -0.77900
C765        C  0.96377138  0.71369795  0.13046862     0.82900
N766        N  0.95643029  0.70271696  0.11153434    -0.79600
O767        O  0.26889744  0.92465987  0.26488473    -0.74300
O768        O  0.19323479  0.84897567  0.22681017    -0.74300
O769        O  0.26628120  0.92403762  0.22580023    -0.74400
O770        O  0.19616503  0.84968224  0.26574701    -0.74400
O771        O  0.16135246  0.88083035  0.26667513    -0.74400
O772        O  0.23231008  0.95606674  0.22643728    -0.74400
O773        O  0.15869982  0.88046560  0.22746141    -0.74300
O774        O  0.23470061  0.95642218  0.26586163    -0.74400
Ni775      Ni  0.23236867  0.88581135  0.24575629     1.25400
Ni776      Ni  0.19553013  0.91963634  0.24662216     1.25400
C777        C  0.26444908  0.95301668  0.27175892     0.87900
C778        C  0.16294646  0.85156905  0.22111027     0.87800
C779        C  0.26145773  0.95265500  0.21960174     0.87800
C780        C  0.16688071  0.85251061  0.27273461     0.88000
C781        C  0.07655997  0.76416116  0.17886766    -0.05400
C782        C  0.10271096  0.75575144  0.18925592    -0.32800
C783        C  0.13017983  0.78331998  0.20327271     0.36500
C784        C  0.13246197  0.82067560  0.20707678    -0.05700
C785        C  0.10521268  0.82840625  0.19725078    -0.32700
C786        C  0.07736458  0.80053497  0.18331150     0.36400
H787        H  0.10224358  0.72770869  0.18642708     0.16700
O788        O  0.15490904  0.77342830  0.21298622    -0.60200
H789        H  0.10607970  0.85667405  0.20002424     0.16800
O790        O  0.05282117  0.81044934  0.17345234    -0.60300
H791        H  0.02786219  0.80008207  0.18172922     0.43800
H792        H  0.13865335  0.75772116  0.22462001     0.43700
C793        C  0.75763655  0.66313627  0.13640686    -0.05400
C794        C  0.72924586  0.67552940  0.13674736    -0.32800
C795        C  0.69195776  0.65332713  0.12624223     0.36500
C796        C  0.68235364  0.61780846  0.11562995    -0.05700
C797        C  0.70904831  0.60359811  0.11650489    -0.32700
C798        C  0.74643278  0.62588896  0.12678674     0.36400
H799        H  0.73706281  0.70383077  0.14414783     0.16700
O800        O  0.66583288  0.66736052  0.12579422    -0.60200
H801        H  0.70180799  0.57624270  0.10837609     0.16800
O802        O  0.77253299  0.61181285  0.12668064    -0.60300
H803        H  0.76528563  0.59448022  0.13852799     0.43800
H804        H  0.67642658  0.68808253  0.11512944     0.43700
C805        C  0.37285216  0.47188875  0.00604770    -0.05400
C806        C  0.37724701  0.48024195  0.02608345    -0.32800
C807        C  0.41418869  0.49250478  0.03572296     0.36500
C808        C  0.44796876  0.49682942  0.02544506    -0.05700
C809        C  0.44391595  0.48803113  0.00550633    -0.32700
C810        C  0.40664953  0.47557248  0.99576183     0.36400
H811        H  0.35197865  0.47751514  0.03446003     0.16700
O812        O  0.41761318  0.50171172  0.05514739    -0.60200
H813        H  0.46984910  0.49129571  0.99748465     0.16800
O814        O  0.40398658  0.46775837  0.97622376    -0.60300
H815        H  0.41427188  0.49494089  0.96989013     0.43800
H816        H  0.40330731  0.47443655  0.06188192     0.43700
C817        C  0.65565540  0.87655249  0.00863089    -0.05400
C818        C  0.64222554  0.86716546  0.02805340    -0.32800
C819        C  0.62716398  0.88826606  0.03776302     0.36500
C820        C  0.62488562  0.91922888  0.02813939    -0.05700
C821        C  0.63821671  0.92903408  0.00882320    -0.32700
C822        C  0.65353588  0.90800147  0.99902463     0.36400
H823        H  0.64333799  0.84330393  0.03589820     0.16700
O824        O  0.61365661  0.87769772  0.05657119    -0.60200
H825        H  0.63665773  0.95301630  0.00134410     0.16800
O826        O  0.66620165  0.91851197  0.98012766    -0.60300
H827        H  0.64075348  0.90105280  0.97223587     0.43800
H828        H  0.63910859  0.89337781  0.06464907     0.43700
C829        C  0.67058840  0.75750142  0.00955632    -0.05400
C830        C  0.66307323  0.75408668  0.02965914    -0.32800
C831        C  0.65013428  0.71719970  0.03954331     0.36500
C832        C  0.64472516  0.68273122  0.02945850    -0.05700
C833        C  0.65445474  0.68654092  0.00961240    -0.32700
C834        C  0.66763330  0.72371887  0.99964737     0.36400
H835        H  0.66587577  0.77972361  0.03774167     0.16700
O836        O  0.64113005  0.71454332  0.05896658    -0.60200
H837        H  0.65025151  0.66008960  0.00170867     0.16800
O838        O  0.67469138  0.72552700  0.98005678    -0.60300
H839        H  0.70430186  0.73472942  0.97878076     0.43800
H840        H  0.61092620  0.70328167  0.05961864     0.43700
C841        C  0.07256566  0.60829404  0.11046481    -0.05400
C842        C  0.10358224  0.64547109  0.11924997    -0.32800
C843        C  0.09329405  0.67032265  0.12934569     0.36500
C844        C  0.05134577  0.65803383  0.13071842    -0.05700
C845        C  0.02028013  0.62017085  0.12227706    -0.32700
C846        C  0.03064929  0.59521352  0.11233918     0.36400
H847        H  0.13602083  0.65598172  0.11762124     0.16700
O848        O  0.12464350  0.70746299  0.13695339    -0.60200
H849        H  0.98787422  0.61016637  0.12315581     0.16800
O850        O  0.99989575  0.55923611  0.10363597    -0.60300
H851        H  0.99208502  0.53701916  0.11333835     0.43800
H852        H  0.13252981  0.72813323  0.12642337     0.43700
C853        C  0.19558310  0.49462540  0.02784781    -0.05400
C854        C  0.22394538  0.48939902  0.03812716    -0.32800
C855        C  0.24825973  0.47776641  0.02862827     0.36500
C856        C  0.24451733  0.47103416  0.00835240    -0.05700
C857        C  0.21530946  0.47538764  0.99812235    -0.32700
C858        C  0.19092735  0.48701962  0.00772924     0.36400
H859        H  0.22760726  0.49487326  0.05364154     0.16700
O860        O  0.27478342  0.47204694  0.03946441    -0.60200
H861        H  0.21180962  0.47047758  0.98257938     0.16800
O862        O  0.16320820  0.49162620  0.99730078    -0.60300
H863        H  0.13635575  0.46436326  0.99825867     0.43800
H864        H  0.29938039  0.50042091  0.04197742     0.43700
C865        C  0.44319351  0.92143746  0.02552072    -0.05400
C866        C  0.40719181  0.89525911  0.03636654    -0.32800
C867        C  0.36840875  0.87123122  0.02737571     0.36500
C868        C  0.36481931  0.87333676  0.00704959    -0.05700
C869        C  0.40086836  0.90041459  0.99620150    -0.32700
C870        C  0.43994367  0.92408407  0.00528215     0.36400
H871        H  0.40929333  0.89305546  0.05195643     0.16700
O872        O  0.33405427  0.84658657  0.03874176    -0.60200
H873        H  0.39897558  0.90250386  0.98060085     0.16800
O874        O  0.47468030  0.94999132  0.99436616    -0.60300
H875        H  0.48098786  0.93143310  0.98739618     0.43800
H876        H  0.33471999  0.82165957  0.04177541     0.43700
C877        C  0.22708511  0.74395763  0.00657369    -0.05400
C878        C  0.23030192  0.74080331  0.02672201    -0.32800
C879        C  0.20593634  0.70283296  0.03623149     0.36500
C880        C  0.17763472  0.66698898  0.02566065    -0.05700
C881        C  0.17262296  0.67004875  0.00570062    -0.32700
C882        C  0.19714413  0.70830197  0.99609365     0.36400
H883        H  0.25265427  0.76771141  0.03515822     0.16700
O884        O  0.21189430  0.70042530  0.05570173    -0.60200
H885        H  0.15080065  0.64247477  0.99748925     0.16800
O886        O  0.19277786  0.70997182  0.97642513    -0.60300
H887        H  0.21228107  0.70353840  0.97057500     0.43800
H888        H  0.19499800  0.70929239  0.06231800     0.43700
C889        C  0.34852355  0.03621532  0.17585434    -0.05400
C890        C  0.31404826  0.03818235  0.18099013    -0.32800
C891        C  0.28549353  0.01164843  0.19521564     0.36500
C892        C  0.29080868  0.98209166  0.20459404    -0.05700
C893        C  0.32564514  0.98078436  0.19971413    -0.32700
C894        C  0.35415745  0.00720273  0.18562981     0.36400
H895        H  0.30869967  0.05996286  0.17377279     0.16700
O896        O  0.25203466  0.01428441  0.19940416    -0.60200
H897        H  0.33116496  0.95906176  0.20687642     0.16800
O898        O  0.38798700  0.00485260  0.18195025    -0.60300
H899        H  0.37668186  0.97776041  0.17534228     0.43800
H900        H  0.26222823  0.03642657  0.20936469     0.43700
C901        C  0.50713492  0.04402930  0.10728309    -0.05400
C902        C  0.47828516  0.01711915  0.12118385    -0.32800
C903        C  0.45359115  0.02766098  0.13130511     0.36500
C904        C  0.45736840  0.06591281  0.12760049    -0.05700
C905        C  0.48774516  0.09355589  0.11415644    -0.32700
C906        C  0.51259255  0.08295511  0.10415603     0.36400
H907        H  0.47382550  0.98703494  0.12369031     0.16700
O908        O  0.42493442  0.99949925  0.14427091    -0.60200
H909        H  0.49179138  0.12324975  0.11105861     0.16800
O910        O  0.54055918  0.10988129  0.09059396    -0.60300
H911        H  0.56781638  0.12490598  0.09734102     0.43800
H912        H  0.39955075  0.98105583  0.13649669     0.43700
C913        C  0.43985582  0.35239054  0.12840039    -0.05400
C914        C  0.47480039  0.36042434  0.11770187    -0.32800
C915        C  0.50004375  0.39819893  0.10797533     0.36500
C916        C  0.49041775  0.42862393  0.10858270    -0.05700
C917        C  0.45617497  0.42133240  0.11950934    -0.32700
C918        C  0.43096927  0.38357684  0.12943394     0.36400
H919        H  0.48246872  0.33715076  0.11669956     0.16700
O920        O  0.53307490  0.40445612  0.09719961    -0.60200
H921        H  0.44840260  0.44457940  0.11991177     0.16800
O922        O  0.39702989  0.37704986  0.13949300    -0.60300
H923        H  0.37402221  0.36501345  0.12990342     0.43800
H924        H  0.55730475  0.41857958  0.10609694     0.43700
C925        C  0.75909123  0.05702024  0.13257033    -0.05400
C926        C  0.72666833  0.01480536  0.13167636    -0.32800
C927        C  0.68970196  0.00224188  0.12163869     0.36500
C928        C  0.68428575  0.03206714  0.11270120    -0.05700
C929        C  0.71553451  0.07429756  0.11453511    -0.32700
C930        C  0.75261302  0.08690164  0.12433824     0.36400
H931        H  0.73077879  0.99130308  0.13787350     0.16700
O932        O  0.65944354  0.96065746  0.12013002    -0.60200
H933        H  0.71189006  0.09749155  0.10759226     0.16800
O934        O  0.78283241  0.12857986  0.12525744    -0.60300
H935        H  0.77751032  0.13826825  0.13757409     0.43800
H936        H  0.66806315  0.95049607  0.10906099     0.43700
C937        C  0.06981076  0.36421546  0.13627410    -0.05400
C938        C  0.11177768  0.39366167  0.13196861    -0.32800
C939        C  0.12317549  0.42974161  0.12148989     0.36500
C940        C  0.09243735  0.43676479  0.11527809    -0.05700
C941        C  0.05103102  0.40900887  0.12090706    -0.32700
C942        C  0.03957656  0.37290314  0.13127594     0.36400
H943        H  0.13539124  0.38747344  0.13564782     0.16700
O944        O  0.16402894  0.45664382  0.11631756    -0.60200
H945        H  0.02720019  0.41432521  0.11642220     0.16800
O946        O  0.99859024  0.34590452  0.13626495    -0.60300
H947        H  0.98443337  0.33084495  0.12414661     0.43800
H948        H  0.17500252  0.48021155  0.12553454     0.43700
C949        C  0.85401592  0.77316152  0.18184128    -0.05400
C950        C  0.89083479  0.81303932  0.18293721    -0.32800
C951        C  0.89462309  0.84283753  0.19626899     0.36500
C952        C  0.86105992  0.83315682  0.20863956    -0.05700
C953        C  0.82529187  0.79261806  0.20813828    -0.32700
C954        C  0.82178416  0.76283465  0.19518838     0.36400
H955        H  0.91612931  0.82175461  0.17293515     0.16700
O956        O  0.93030713  0.88189185  0.19628990    -0.60200
H957        H  0.79952636  0.78373686  0.21786970     0.16800
O958        O  0.78614843  0.72370861  0.19556639    -0.60300
H959        H  0.79205214  0.70769670  0.20479683     0.43800
H960        H  0.95024341  0.87956805  0.20446850     0.43700
C961        C  0.85597315  0.98420316  0.20508267    -0.05400
C962        C  0.81700478  0.97082688  0.19687617    -0.32800
C963        C  0.81240576  0.99434292  0.18276389     0.36500
C964        C  0.84722950  0.03281488  0.17636741    -0.05700
C965        C  0.88636904  0.04627566  0.18453430    -0.32700
C966        C  0.89088404  0.02257948  0.19875480     0.36400
H967        H  0.78948698  0.94162900  0.20136719     0.16700
O968        O  0.77333356  0.97914845  0.17550319    -0.60200
H969        H  0.91376602  0.07554026  0.18002281     0.16800
O970        O  0.92962076  0.03745975  0.20634365    -0.60300
H971        H  0.93243259  0.05557032  0.21730669     0.43800
H972        H  0.77026191  0.96106767  0.16447523     0.43700
C973        C  0.09231749  0.27189266  0.17713703    -0.05400
C974        C  0.13237315  0.30611908  0.18161174    -0.32800
C975        C  0.15678683  0.30371292  0.19596993     0.36500
C976        C  0.14161710  0.26639184  0.20644602    -0.05700
C977        C  0.10208964  0.23163943  0.20161416    -0.32700
C978        C  0.07762631  0.23405772  0.18709785     0.36400
H979        H  0.14517822  0.33533954  0.17396381     0.16700
O980        O  0.19596390  0.33802477  0.19926235    -0.60200
H981        H  0.08970268  0.20254113  0.20931373     0.16800
O982        O  0.03888050  0.19958837  0.18333070    -0.60300
H983        H  0.04357523  0.18317729  0.17380225     0.43800
H984        H  0.19183903  0.35639869  0.20772730     0.43700
C985        C  0.28472728  0.25740697  0.20829545    -0.05400
C986        C  0.32476278  0.29318905  0.20578630    -0.32800
C987        C  0.35115116  0.29557545  0.19115311     0.36500
C988        C  0.33788999  0.26190892  0.17832141    -0.05700
C989        C  0.29847786  0.22531114  0.18122191    -0.32700
C990        C  0.27186845  0.22294484  0.19599524     0.36400
H991        H  0.33583609  0.31987796  0.21518425     0.16700
O992        O  0.38990182  0.33141536  0.18945447    -0.60200
H993        H  0.28757264  0.19907807  0.17154640     0.16800
O994        O  0.23303567  0.18731008  0.19784712    -0.60300
H995        H  0.21466116  0.19174232  0.18952773     0.43800
H996        H  0.40847425  0.32659893  0.19739621     0.43700
C997        C  0.08482783  0.76542830  0.31670147    -0.05400
C998        C  0.12018389  0.76606247  0.31061141    -0.32800
C999        C  0.14701767  0.79404240  0.29646483     0.36500
C1000       C  0.13891996  0.82238041  0.28784080    -0.05700
C1001       C  0.10321055  0.82133348  0.29363609    -0.32700
C1002       C  0.07620499  0.79315769  0.30776066     0.36400
H1003       H  0.12772567  0.74516636  0.31702838     0.16700
O1004       O  0.18113760  0.79326109  0.29128468    -0.60200
H1005       H  0.09593086  0.84236865  0.28714412     0.16800
O1006       O  0.04184048  0.79360048  0.31279511    -0.60300
H1007       H  0.01944352  0.77333141  0.30396867     0.43800
H1008       H  0.20339871  0.81247458  0.30044002     0.43700
C1009       C  0.85858020  0.78263530  0.31775601    -0.05400
C1010       C  0.82289103  0.78285483  0.31309378    -0.32800
C1011       C  0.82374953  0.80994562  0.29924040     0.36500
C1012       C  0.86108988  0.83874347  0.28949647    -0.05700
C1013       C  0.89720214  0.83931268  0.29426276    -0.32700
C1014       C  0.89619035  0.81167821  0.30820547     0.36400
H1015       H  0.79343916  0.76165519  0.32018448     0.16700
O1016       O  0.78764729  0.80830089  0.29569115    -0.60200
H1017       H  0.92627667  0.86082326  0.28695378     0.16800
O1018       O  0.93186910  0.81269400  0.31189733    -0.60300
H1019       H  0.94694598  0.83470802  0.32182643     0.43800
H1020       H  0.77167494  0.78483813  0.28651229     0.43700
C1021       C  0.69415136  0.61715893  0.38306691    -0.05400
C1022       C  0.72121055  0.60367747  0.38064679    -0.32800
C1023       C  0.75750363  0.62712259  0.36963491     0.36500
C1024       C  0.76722571  0.66482554  0.36093555    -0.05700
C1025       C  0.73836760  0.67650621  0.36220438    -0.32700
C1026       C  0.70216496  0.65307836  0.37332588     0.36400
H1027       H  0.71503659  0.57585667  0.38799469     0.16700
O1028       O  0.78400564  0.61366777  0.36808310    -0.60200
H1029       H  0.74500079  0.70512372  0.35555531     0.16800
O1030       O  0.67536609  0.66612795  0.37513976    -0.60300
H1031       H  0.68702469  0.68699393  0.38573391     0.43800
H1032       H  0.77538778  0.59674499  0.35606144     0.43700
C1033       C  0.37891991  0.46847823  0.48951903    -0.05400
C1034       C  0.38174184  0.47295582  0.46923869    -0.32800
C1035       C  0.41892896  0.48640775  0.45959757     0.36500
C1036       C  0.45429082  0.49555188  0.47016659    -0.05700
C1037       C  0.45182582  0.49095072  0.49042243    -0.32700
C1038       C  0.41440016  0.47755358  0.50015942     0.36400
H1039       H  0.35502045  0.46628462  0.46071865     0.16700
O1040       O  0.42099561  0.49217260  0.43986775    -0.60200
H1041       H  0.47911454  0.49833591  0.49866534     0.16800
O1042       O  0.41324374  0.47457242  0.52001165    -0.60300
H1043       H  0.42080177  0.50227832  0.52474462     0.43800
H1044       H  0.40708860  0.46387919  0.43419733     0.43700
C1045       C  0.05880866  0.65913523  0.36565781    -0.05400
C1046       C  0.09826551  0.66603528  0.36203944    -0.32800
C1047       C  0.11191756  0.64389275  0.37219240     0.36500
C1048       C  0.08604665  0.61405365  0.38613076    -0.05700
C1049       C  0.04590730  0.60538260  0.38908176    -0.32700
C1050       C  0.03223748  0.62769177  0.37910570     0.36400
H1051       H  0.11933417  0.68975755  0.35182479     0.16700
O1052       O  0.15140600  0.65304782  0.36909745    -0.60200
H1053       H  0.02565502  0.58225585  0.39971482     0.16800
O1054       O  0.99277820  0.61830619  0.38262531    -0.60300
H1055       H  0.99479869  0.63264240  0.39495420     0.43800
H1056       H  0.14868056  0.63465876  0.35828897     0.43700
C1057       C  0.20046501  0.67642045  0.47070667    -0.05400
C1058       C  0.18989187  0.67946378  0.48983313    -0.32800
C1059       C  0.21311605  0.71714066  0.50005306     0.36500
C1060       C  0.24767491  0.75220454  0.49111145    -0.05700
C1061       C  0.25730794  0.74869393  0.47176702    -0.32700
C1062       C  0.23430160  0.71131312  0.46170635     0.36400
H1063       H  0.16403939  0.65242290  0.49691060     0.16700
O1064       O  0.20274373  0.71869220  0.51891917    -0.60200
H1065       H  0.28332613  0.77488245  0.46432765     0.16800
O1066       O  0.24560598  0.70889341  0.44310843    -0.60300
H1067       H  0.26444379  0.69881153  0.44446852     0.43800
H1068       H  0.17896911  0.72216014  0.51808908     0.43700
C1069       C  0.20587136  0.49718265  0.46939599    -0.05400
C1070       C  0.23983762  0.50061142  0.45997492    -0.32800
C1071       C  0.26246387  0.48627677  0.46871703     0.36500
C1072       C  0.25171568  0.46862200  0.48756612    -0.05700
C1073       C  0.21680232  0.46439451  0.49681314    -0.32700
C1074       C  0.19395117  0.47860841  0.48782450     0.36400
H1075       H  0.24880634  0.51449260  0.44565133     0.16700
O1076       O  0.29525488  0.49018706  0.45862018    -0.60200
H1077       H  0.20743532  0.45055232  0.51111133     0.16800
O1078       O  0.15966973  0.47354733  0.49693301    -0.60300
H1079       H  0.17033167  0.49920210  0.50469520     0.43800
H1080       H  0.28319489  0.46407897  0.45105255     0.43700
C1081       C  0.67075986  0.75947400  0.48347316    -0.05400
C1082       C  0.66193148  0.75424209  0.46348177    -0.32800
C1083       C  0.65034391  0.71709788  0.45418281     0.36500
C1084       C  0.64711529  0.68423411  0.46484589    -0.05700
C1085       C  0.65726488  0.68958638  0.48460884    -0.32700
C1086       C  0.66906045  0.72687236  0.49397675     0.36400
H1087       H  0.66316752  0.77872287  0.45502924     0.16700
O1088       O  0.63964906  0.71216366  0.43491629    -0.60200
H1089       H  0.65451713  0.66419666  0.49291971     0.16800
O1090       O  0.67718487  0.73030868  0.51350509    -0.60300
H1091       H  0.64985904  0.71906266  0.51988842     0.43800
H1092       H  0.66610275  0.72299541  0.42777520     0.43700
C1093       C  0.65781663  0.88032096  0.48363841    -0.05400
C1094       C  0.66343293  0.91586289  0.49287441    -0.32800
C1095       C  0.65021946  0.93969918  0.48402958     0.36500
C1096       C  0.63129091  0.92832666  0.46567742    -0.05700
C1097       C  0.62545304  0.89308347  0.45644531    -0.32700
C1098       C  0.63800129  0.86887839  0.46526644     0.36400
H1099       H  0.67805576  0.92530154  0.50700851     0.16700
O1100       O  0.65549124  0.97372041  0.49347911    -0.60200
H1101       H  0.61049610  0.88397126  0.44235615     0.16800
O1102       O  0.63085932  0.83431493  0.45560105    -0.60300
H1103       H  0.60219680  0.81170795  0.45929200     0.43800
H1104       H  0.68313036  0.99743098  0.48924116     0.43700
C1105       C  0.45329351  0.93595047  0.47011571    -0.05400
C1106       C  0.45115858  0.94471318  0.48971089    -0.32800
C1107       C  0.41380469  0.92071500  0.50017664     0.36500
C1108       C  0.37811126  0.88758807  0.49093151    -0.05700
C1109       C  0.38055497  0.88021727  0.47111277    -0.32700
C1110       C  0.41754891  0.90383608  0.46081808     0.36400
H1111       H  0.47872517  0.96942938  0.49697497     0.16700
O1112       O  0.41300006  0.92919241  0.51943617    -0.60200
H1113       H  0.35380851  0.85528719  0.46347797     0.16800
O1114       O  0.41914997  0.89381353  0.44186423    -0.60300
H1115       H  0.40873693  0.90813178  0.43412895     0.43800
H1116       H  0.42094730  0.91198968  0.52650172     0.43700
C1117       C  0.34772905  0.03524954  0.31665308    -0.05400
C1118       C  0.35333106  0.00531885  0.30812224    -0.32800
C1119       C  0.32715216  0.97908812  0.29341485     0.36500
C1120       C  0.29388047  0.98186778  0.28681483    -0.05700
C1121       C  0.28856851  0.01227029  0.29502618    -0.32700
C1122       C  0.31513209  0.03887269  0.30972336     0.36400
H1123       H  0.37811065  0.00172048  0.31291529     0.16700
O1124       O  0.33408930  0.95021445  0.28596853    -0.60200
H1125       H  0.26341706  0.01526718  0.29021096     0.16800
O1126       O  0.30794169  0.06727243  0.31753209    -0.60300
H1127       H  0.32339925  0.09218723  0.30909572     0.43800
H1128       H  0.35455121  0.96481862  0.27535922     0.43700
C1129       C  0.50520170  0.03895082  0.38327380    -0.05400
C1130       C  0.51752656  0.08067508  0.38299191    -0.32800
C1131       C  0.49331021  0.09255782  0.37345427     0.36500
C1132       C  0.45633825  0.06245617  0.36383938    -0.05700
C1133       C  0.44542650  0.02102882  0.36326508    -0.32700
C1134       C  0.46948793  0.00919350  0.37297911     0.36400
H1135       H  0.54515139  0.10379340  0.39081132     0.16700
O1136       O  0.50632098  0.13373185  0.37339233    -0.60200
H1137       H  0.41721688  0.99739762  0.35598435     0.16800
O1138       O  0.45675435  0.96812343  0.37317540    -0.60300
H1139       H  0.47183449  0.96514546  0.36227820     0.43800
H1140       H  0.50046071  0.13938117  0.38662737     0.43700
C1141       C  0.34430526  0.26709497  0.31871844    -0.05400
C1142       C  0.31004232  0.22795962  0.31292858    -0.32800
C1143       C  0.28127389  0.22455577  0.29904044     0.36500
C1144       C  0.28650843  0.26066700  0.29050465    -0.05700
C1145       C  0.32111237  0.29951205  0.29611322    -0.32700
C1146       C  0.34972139  0.30300410  0.30977877     0.36400
H1147       H  0.30500230  0.19982192  0.31941010     0.16700
O1148       O  0.24840599  0.18578784  0.29392886    -0.60200
H1149       H  0.32646383  0.32794291  0.28982906     0.16800
O1150       O  0.38274677  0.34216220  0.31430901    -0.60300
H1151       H  0.40480527  0.34806931  0.30483450     0.43800
H1152       H  0.22646826  0.17877385  0.30367263     0.43700
C1153       C  0.45277052  0.35438741  0.36702312    -0.05400
C1154       C  0.48790294  0.36146939  0.37722594    -0.32800
C1155       C  0.51248545  0.39775501  0.38805264     0.36500
C1156       C  0.50191453  0.42742615  0.38900854    -0.05700
C1157       C  0.46764283  0.42121026  0.37850983    -0.32700
C1158       C  0.44314458  0.38505538  0.36749870     0.36400
H1159       H  0.49604326  0.33848908  0.37705589     0.16700
O1160       O  0.54578477  0.40322310  0.39831333    -0.60200
H1161       H  0.45945143  0.44412902  0.37918830     0.16800
O1162       O  0.40912286  0.37946447  0.35788367    -0.60300
H1163       H  0.38574992  0.36476425  0.36722526     0.43800
H1164       H  0.56998605  0.41891774  0.38948633     0.43700
C1165       C  0.84943002  0.03473425  0.31763640    -0.05400
C1166       C  0.88829951  0.04824832  0.30916787    -0.32800
C1167       C  0.89219420  0.02489448  0.29452882     0.36500
C1168       C  0.85689922  0.98692098  0.28807321    -0.05700
C1169       C  0.81820002  0.97364736  0.29650515    -0.32700
C1170       C  0.81424390  0.99665830  0.31107840     0.36400
H1171       H  0.91589385  0.07720753  0.31379912     0.16700
O1172       O  0.93073212  0.03956869  0.28674585    -0.60200
H1173       H  0.79045643  0.94467271  0.29199502     0.16800
O1174       O  0.77547874  0.98104039  0.31883372    -0.60300
H1175       H  0.77320140  0.96303818  0.32975475     0.43800
H1176       H  0.93320627  0.05728389  0.27565328     0.43700
C1177       C  0.68572854  0.03465476  0.37939831    -0.05400
C1178       C  0.71754581  0.07680787  0.37816514    -0.32800
C1179       C  0.75477049  0.08927030  0.36860492     0.36500
C1180       C  0.76068393  0.05927925  0.36014374    -0.05700
C1181       C  0.72743435  0.01736104  0.36009880    -0.32700
C1182       C  0.69025514  0.00493584  0.36982235     0.36400
H1183       H  0.71429898  0.09987432  0.38550297     0.16700
O1184       O  0.78578810  0.13075249  0.36829920    -0.60200
H1185       H  0.73113282  0.99386925  0.35357498     0.16800
O1186       O  0.65909079  0.96353802  0.37056193    -0.60300
H1187       H  0.66522045  0.95252101  0.38219170     0.43800
H1188       H  0.78307435  0.14102704  0.35553800     0.43700
C1189       C  0.09036365  0.27232835  0.32010595    -0.05400
C1190       C  0.12694049  0.30837204  0.31334470    -0.32800
C1191       C  0.15147426  0.30652742  0.29887938     0.36500
C1192       C  0.13984599  0.26798191  0.29052074    -0.05700
C1193       C  0.10304311  0.23186027  0.29708321    -0.32700
C1194       C  0.07834444  0.23374844  0.31159926     0.36400
H1195       H  0.13719251  0.33855183  0.31940892     0.16700
O1196       O  0.18684968  0.34293268  0.29308686    -0.60200
H1197       H  0.09317424  0.20184501  0.29093227     0.16800
O1198       O  0.04285585  0.19750471  0.31742248    -0.60300
H1199       H  0.02086308  0.19353280  0.30835947     0.43800
H1200       H  0.20872487  0.34742616  0.30236430     0.43700
C1201       C  0.07132283  0.36087337  0.36548102    -0.05400
C1202       C  0.11359615  0.39334959  0.36549826    -0.32800
C1203       C  0.12685461  0.43119412  0.37476077     0.36500
C1204       C  0.09764716  0.43728072  0.38383417    -0.05700
C1205       C  0.05532585  0.40587773  0.38292654    -0.32700
C1206       C  0.04205463  0.36779296  0.37404137     0.36400
H1207       H  0.13662530  0.38870321  0.35915696     0.16700
O1208       O  0.16859659  0.46112711  0.37588386    -0.60200
H1209       H  0.03268115  0.41015831  0.39001215     0.16800
O1210       O  0.00030897  0.33750022  0.37383852    -0.60300
H1211       H  0.99399201  0.32492939  0.38699179     0.43800
H1212       H  0.17414323  0.48061691  0.36508744     0.43700
C1213       C  0.24979846  0.86127062  0.91507144    -0.05400
C1214       C  0.28145523  0.89268569  0.92674267    -0.32800
C1215       C  0.29088515  0.88357573  0.94492921     0.36500
C1216       C  0.26882228  0.84222433  0.95182063    -0.05700
C1217       C  0.23683860  0.81085449  0.94026176    -0.32700
C1218       C  0.22740537  0.81991339  0.92207285     0.36400
H1219       H  0.29904308  0.92469929  0.92181423     0.16700
O1220       O  0.32160464  0.91554646  0.95583194    -0.60200
H1221       H  0.21939895  0.77879676  0.94513345     0.16800
O1222       O  0.19666791  0.78781153  0.91121426    -0.60300
H1223       H  0.21069799  0.77645746  0.90396829     0.43800
H1224       H  0.30711792  0.92511894  0.96401398     0.43700
C1225       C  0.45419368  0.21993765  0.04020848    -0.05400
C1226       C  0.43438688  0.17836533  0.04646645    -0.32800
C1227       C  0.41653438  0.16626332  0.06498586     0.36500
C1228       C  0.41812446  0.19588450  0.07768844    -0.05700
C1229       C  0.43613856  0.23695433  0.07108463    -0.32700
C1230       C  0.45395356  0.24906393  0.05261356     0.36400
H1231       H  0.43316166  0.15507775  0.03707427     0.16700
O1232       O  0.39707326  0.12530251  0.07036907    -0.60200
H1233       H  0.43794798  0.26045455  0.08053954     0.16800
O1234       O  0.47325822  0.29007738  0.04741395    -0.60300
H1235       H  0.45059303  0.29318455  0.04278113     0.43800
H1236       H  0.41980518  0.12153796  0.07411683     0.43700
C1237       C  0.54875456  0.39420284  0.96481177    -0.05400
C1238       C  0.54040052  0.39162404  0.98476177    -0.32800
C1239       C  0.52565096  0.35433611  0.99492489     0.36500
C1240       C  0.51954208  0.31912441  0.98509783    -0.05700
C1241       C  0.52756512  0.32197616  0.96503539    -0.32700
C1242       C  0.54222138  0.35904508  0.95496878     0.36400
H1243       H  0.54571812  0.41872389  0.99247755     0.16700
O1244       O  0.51950829  0.35341400  0.01456054    -0.60200
H1245       H  0.52299148  0.29543153  0.95707331     0.16800
O1246       O  0.55045135  0.36076945  0.93549196    -0.60300
H1247       H  0.58057423  0.37175280  0.93463799     0.43800
H1248       H  0.49230033  0.35048858  0.01606645     0.43700
C1249       C  0.81044834  0.61224450  0.98329699    -0.05400
C1250       C  0.77689403  0.60838269  0.99371541    -0.32800
C1251       C  0.73962132  0.59671675  0.98430251     0.36500
C1252       C  0.73570996  0.58922210  0.96421523    -0.05700
C1253       C  0.76982014  0.59546850  0.95361832    -0.32700
C1254       C  0.80700809  0.60709326  0.96292701     0.36400
H1255       H  0.77882723  0.61270449  0.00930090     0.16700
O1256       O  0.70694222  0.59201945  0.99483153    -0.60200
H1257       H  0.76707074  0.58992013  0.93810674     0.16800
O1258       O  0.83936510  0.61229830  0.95195034    -0.60300
H1259       H  0.85660454  0.64243730  0.94889077     0.43800
H1260       H  0.69262862  0.56354929  0.00034515     0.43700
C1261       C  0.89803819  0.65606836  0.04233998    -0.05400
C1262       C  0.93052185  0.65782066  0.05267839    -0.32800
C1263       C  0.93978863  0.67244233  0.07176073     0.36500
C1264       C  0.91600849  0.68542906  0.08130496    -0.05700
C1265       C  0.88374416  0.68413647  0.07092750    -0.32700
C1266       C  0.87486494  0.67000759  0.05166857     0.36400
H1267       H  0.94901944  0.64753494  0.04603857     0.16700
O1268       O  0.97159933  0.67265004  0.08100658    -0.60200
H1269       H  0.86512498  0.69410881  0.07773034     0.16800
O1270       O  0.84306577  0.66959003  0.04230683    -0.60300
H1271       H  0.85612128  0.69750507  0.03628137     0.43800
H1272       H  0.99726107  0.69932123  0.07722236     0.43700
C1273       C  0.08822482  0.63241727  0.88139318    -0.05400
C1274       C  0.05907399  0.63336346  0.86947826    -0.32800
C1275       C  0.07031228  0.66930705  0.85889297     0.36500
C1276       C  0.11112165  0.70486152  0.86040240    -0.05700
C1277       C  0.14072701  0.70235707  0.87136982    -0.32700
C1278       C  0.12952440  0.66657980  0.88179087     0.36400
H1279       H  0.02722004  0.60676795  0.86899735     0.16700
O1280       O  0.04078115  0.66985460  0.84790913    -0.60200
H1281       H  0.17249991  0.72889998  0.87254331     0.16800
O1282       O  0.15843593  0.66629782  0.89341034    -0.60300
H1283       H  0.16942276  0.65269745  0.88554450     0.43800
H1284       H  0.02646790  0.67816170  0.85697012     0.43700
C1285       C  0.93099801  0.59884269  0.98562090    -0.05400
C1286       C  0.92625751  0.59046539  0.96556688    -0.32800
C1287       C  0.94844733  0.57628611  0.95604358     0.36500
C1288       C  0.97640938  0.57026497  0.96640659    -0.05700
C1289       C  0.98174342  0.57892434  0.98636960    -0.32700
C1290       C  0.95936672  0.59306431  0.99599660     0.36400
H1291       H  0.90511245  0.59480495  0.95708669     0.16700
O1292       O  0.94270693  0.56852421  0.93648634    -0.60200
H1293       H  0.00339701  0.57473800  0.99450378     0.16800
O1294       O  0.96556601  0.60100858  0.01551342    -0.60300
H1295       H  0.94515510  0.57424182  0.02190977     0.43800
H1296       H  0.91925357  0.53905342  0.93537633     0.43700
C1297       C  0.75887112  0.87415487  0.91558349    -0.05400
C1298       C  0.75794384  0.90385208  0.92712525    -0.32800
C1299       C  0.74041454  0.89387959  0.94570400     0.36500
C1300       C  0.72309934  0.85337482  0.95321190    -0.05700
C1301       C  0.72483356  0.82393685  0.94186046    -0.32700
C1302       C  0.74215593  0.83381595  0.92323370     0.36400
H1303       H  0.77059171  0.93506766  0.92170319     0.16700
O1304       O  0.74032547  0.92410996  0.95628254    -0.60200
H1305       H  0.71171761  0.79258690  0.94720336     0.16800
O1306       O  0.74159777  0.80332099  0.91256951    -0.60300
H1307       H  0.71429766  0.78840948  0.90584883     0.43800
H1308       H  0.76652177  0.93786166  0.96388506     0.43700
C1309       C  0.72270592  0.71761853  0.86122811    -0.05400
C1310       C  0.73247215  0.68727300  0.86150964    -0.32800
C1311       C  0.70831677  0.65071215  0.87226241     0.36500
C1312       C  0.67367547  0.64390293  0.88277925    -0.05700
C1313       C  0.66228979  0.67286669  0.88160775    -0.32700
C1314       C  0.68648324  0.70955360  0.87090532     0.36400
H1315       H  0.76013509  0.69283775  0.85424325     0.16700
O1316       O  0.72012151  0.62283617  0.87333322    -0.60200
H1317       H  0.63548537  0.66767632  0.88957962     0.16800
O1318       O  0.67512205  0.73783857  0.87049855    -0.60300
H1319       H  0.65994739  0.73262642  0.85808358     0.43800
H1320       H  0.70284411  0.60123368  0.86353284     0.43700
C1321       C  0.99667954  0.39820004  0.96917677    -0.05400
C1322       C  0.97008162  0.36187110  0.95864732    -0.32800
C1323       C  0.94625414  0.32355355  0.96802462     0.36500
C1324       C  0.94883118  0.32100646  0.98836784    -0.05700
C1325       C  0.97784433  0.35701824  0.99873637    -0.32700
C1326       C  0.00172323  0.39552282  0.98923337     0.36400
H1327       H  0.96663787  0.36349785  0.94311856     0.16700
O1328       O  0.92045205  0.28872830  0.95714319    -0.60200
H1329       H  0.98057114  0.35574040  0.01433046     0.16800
O1330       O  0.02847790  0.43056334  0.99973941    -0.60300
H1331       H  0.05569393  0.43326054  0.99909475     0.43800
H1332       H  0.89628939  0.29048109  0.95376290     0.43700
C1333       C  0.92292103  0.20573515  0.08262124    -0.05400
C1334       C  0.95543821  0.23841775  0.07176683    -0.32800
C1335       C  0.94821552  0.24918069  0.05341047     0.36500
C1336       C  0.90769847  0.22702388  0.04535902    -0.05700
C1337       C  0.87528502  0.19430018  0.05622608    -0.32700
C1338       C  0.88247413  0.18357552  0.07453876     0.36400
H1339       H  0.98683398  0.25587934  0.07749311     0.16700
O1340       O  0.98131915  0.28092882  0.04340901    -0.60200
H1341       H  0.84376971  0.17691015  0.05065088     0.16800
O1342       O  0.84916780  0.15231713  0.08464640    -0.60300
H1343       H  0.84539736  0.12616026  0.07973829     0.43800
H1344       H  0.98454746  0.30678309  0.04841554     0.43700
C1345       C  0.49198157  0.03301474  0.88374900    -0.05400
C1346       C  0.49164750  0.05628293  0.86809123    -0.32800
C1347       C  0.45412819  0.04474046  0.85881225     0.36500
C1348       C  0.41616415  0.00918754  0.86512991    -0.05700
C1349       C  0.41741476  0.98495608  0.88020213    -0.32700
C1350       C  0.45464844  0.99682807  0.88954352     0.36400
H1351       H  0.52024865  0.08461066  0.86371423     0.16700
O1352       O  0.45501092  0.06900812  0.84395367    -0.60200
H1353       H  0.38917518  0.95723921  0.88536988     0.16800
O1354       O  0.45406770  0.97369319  0.90488981    -0.60300
H1355       H  0.44783159  0.98480881  0.91643983     0.43800
H1356       H  0.45337074  0.09124904  0.85033533     0.43700
C1357       C  0.55418066  0.15009142  0.96846029    -0.05400
C1358       C  0.52769968  0.13298616  0.98456295    -0.32800
C1359       C  0.51358102  0.15536006  0.99411834     0.36500
C1360       C  0.52544247  0.19518376  0.98728044    -0.05700
C1361       C  0.55257939  0.21211902  0.97126638    -0.32700
C1362       C  0.56689106  0.19000476  0.96195519     0.36400
H1363       H  0.51788847  0.10219383  0.98965566     0.16700
O1364       O  0.48751459  0.13750519  0.00974564    -0.60200
H1365       H  0.56289458  0.24275198  0.96575913     0.16800
O1366       O  0.59347826  0.20764031  0.94645925    -0.60300
H1367       H  0.57550110  0.20366403  0.93521564     0.43800
H1368       H  0.50616483  0.14446301  0.02107635     0.43700
C1369       C  0.67397233  0.02957909  0.88741700    -0.05400
C1370       C  0.67683033  0.99702568  0.89448867    -0.32800
C1371       C  0.70196025  0.98598303  0.88527172     0.36500
C1372       C  0.72542559  0.00799057  0.86857762    -0.05700
C1373       C  0.72100659  0.03959981  0.86109242    -0.32700
C1374       C  0.69547814  0.05032156  0.87035729     0.36400
H1375       H  0.66072168  0.98115375  0.90773848     0.16700
O1376       O  0.70469434  0.95489205  0.89339808    -0.60200
H1377       H  0.73817187  0.05687384  0.84830071     0.16800
O1378       O  0.69376194  0.08282220  0.86334132    -0.60300
H1379       H  0.67100178  0.07023470  0.85362545     0.43800
H1380       H  0.68160035  0.92877564  0.88753119     0.43700
C1381       C  0.73119976  0.14685603  0.97257888    -0.05400
C1382       C  0.75437796  0.19018917  0.97054915    -0.32800
C1383       C  0.79232447  0.21498500  0.98012507     0.36500
C1384       C  0.80815617  0.19654807  0.99193752    -0.05700
C1385       C  0.78419471  0.15312201  0.99450584    -0.32700
C1386       C  0.74604523  0.12824521  0.98477263     0.36400
H1387       H  0.74305892  0.20483112  0.96129740     0.16700
O1388       O  0.81371435  0.25732149  0.97775524    -0.60200
H1389       H  0.79562952  0.13834342  0.00356820     0.16800
O1390       O  0.72347765  0.08591744  0.98724287    -0.60300
H1391       H  0.73557575  0.07558089  0.97794781     0.43800
H1392       H  0.80447143  0.26739599  0.98860507     0.43700
C1393       C  0.25444621  0.37845000  0.91301127    -0.05400
C1394       C  0.23118350  0.39273352  0.92158023    -0.32800
C1395       C  0.24028847  0.40983103  0.94023616     0.36500
C1396       C  0.27364366  0.41342728  0.95087228    -0.05700
C1397       C  0.29619785  0.39810607  0.94253079    -0.32700
C1398       C  0.28696408  0.38081845  0.92388210     0.36400
H1399       H  0.20599782  0.39135683  0.91370605     0.16700
O1400       O  0.21715348  0.42426998  0.94752071    -0.60200
H1401       H  0.32148593  0.39970630  0.95041410     0.16800
O1402       O  0.30998538  0.36625988  0.91657106    -0.60300
H1403       H  0.33547384  0.39105565  0.91115817     0.43800
H1404       H  0.19225246  0.39961388  0.95339251     0.43700
C1405       C  0.10021832  0.45701413  0.88326360    -0.05400
C1406       C  0.06962503  0.41797532  0.87581081    -0.32800
C1407       C  0.08069649  0.39461565  0.86494054     0.36500
C1408       C  0.12299764  0.41018500  0.86150450    -0.05700
C1409       C  0.15354086  0.44986410  0.86852233    -0.32700
C1410       C  0.14234584  0.47347817  0.87913450     0.36400
H1411       H  0.03709066  0.40504860  0.87898227     0.16700
O1412       O  0.05005660  0.35573315  0.85864813    -0.60200
H1413       H  0.18621215  0.46227728  0.86602927     0.16800
O1414       O  0.17278864  0.51162633  0.88623638    -0.60300
H1415       H  0.17746479  0.53175182  0.87589771     0.43800
H1416       H  0.04601201  0.33663942  0.86939475     0.43700
C1417       C  0.48611008  0.44859917  0.88296336    -0.05400
C1418       C  0.45578629  0.45812225  0.88353051    -0.32800
C1419       C  0.41834523  0.43357451  0.87357023     0.36500
C1420       C  0.41070468  0.39860334  0.86281529    -0.05700
C1421       C  0.44225096  0.39054214  0.86145344    -0.32700
C1422       C  0.47964699  0.41509412  0.87162016     0.36400
H1423       H  0.46063138  0.48386121  0.89229907     0.16700
O1424       O  0.38905508  0.44352024  0.87494568    -0.60200
H1425       H  0.43725533  0.36410677  0.85324198     0.16800
O1426       O  0.50934958  0.40564339  0.87078886    -0.60300
H1427       H  0.50184910  0.38487322  0.88122566     0.43800
H1428       H  0.39316996  0.46039826  0.86323153     0.43700
C1429       C  0.32406236  0.08231668  0.79124490    -0.05400
C1430       C  0.28851240  0.04379136  0.79655668    -0.32800
C1431       C  0.29043686  0.01878779  0.81086561     0.36500
C1432       C  0.32849747  0.03213964  0.82035225    -0.05700
C1433       C  0.36389647  0.07078971  0.81506706    -0.32700
C1434       C  0.36195066  0.09576205  0.80086651     0.36400
H1435       H  0.25899963  0.03267125  0.78947731     0.16700
O1436       O  0.25477467  0.98145113  0.81539357    -0.60200
H1437       H  0.39349349  0.08227926  0.82213024     0.16800
O1438       O  0.39752812  0.13341145  0.79662652    -0.60300
H1439       H  0.39786431  0.15335985  0.80590269     0.43800
H1440       H  0.25383663  0.96115237  0.80614497     0.43700
C1441       C  0.32058367  0.28682371  0.81661640    -0.05400
C1442       C  0.28362871  0.24733716  0.81453348    -0.32800
C1443       C  0.28102254  0.21835710  0.80109739     0.36500
C1444       C  0.31563812  0.22879878  0.78935359    -0.05700
C1445       C  0.35183407  0.26879870  0.79100698    -0.32700
C1446       C  0.35456588  0.29749538  0.80437594     0.36400
H1447       H  0.25713495  0.23836116  0.82376751     0.16700
O1448       O  0.24480321  0.17983281  0.79985829    -0.60200
H1449       H  0.37854420  0.27818894  0.78184648     0.16800
O1450       O  0.39047486  0.33643268  0.80496153    -0.60300
H1451       H  0.41091727  0.33295054  0.81205201     0.43800
H1452       H  0.24807001  0.16226081  0.80929246     0.43700
C1453       C  0.89045285  0.08885769  0.78965656    -0.05400
C1454       C  0.86563034  0.10051572  0.79888975    -0.32800
C1455       C  0.83801272  0.07633899  0.81371522     0.36500
C1456       C  0.83475828  0.03949226  0.81981265    -0.05700
C1457       C  0.85967413  0.02784576  0.81053998    -0.32700
C1458       C  0.88712272  0.05197595  0.79559757     0.36400
H1459       H  0.86768438  0.12882341  0.79470627     0.16700
O1460       O  0.81535124  0.08992065  0.82243247    -0.60200
H1461       H  0.85792114  0.99973351  0.81479293     0.16800
O1462       O  0.91035201  0.03899611  0.78693088    -0.60300
H1463       H  0.89313639  0.02123195  0.77593642     0.43800
H1464       H  0.79065958  0.07984078  0.81400184     0.43700
C1465       C  0.04621680  0.24684488  0.78482304    -0.05400
C1466       C  0.07908718  0.24484466  0.79244827    -0.32800
C1467       C  0.10597289  0.27333958  0.80648829     0.36500
C1468       C  0.10030333  0.30476243  0.81323708    -0.05700
C1469       C  0.06837718  0.30757050  0.80502590    -0.32700
C1470       C  0.04178853  0.27938538  0.79096292     0.36400
H1471       H  0.08373893  0.22071013  0.78775105     0.16700
O1472       O  0.13741521  0.26982122  0.81349961    -0.60200
H1473       H  0.06339161  0.33151836  0.80965069     0.16800
O1474       O  0.01094770  0.28361433  0.78372091    -0.60300
H1475       H  0.02384873  0.30312002  0.77262990     0.43800
H1476       H  0.12456265  0.24881733  0.82402336     0.43700
C1477       C  0.89135124  0.80781542  0.78682913    -0.05400
C1478       C  0.85178312  0.77152804  0.78952566    -0.32800
C1479       C  0.82390847  0.76971902  0.80318760     0.36500
C1480       C  0.83501401  0.80477553  0.81477351    -0.05700
C1481       C  0.87413806  0.84167657  0.81168746    -0.32700
C1482       C  0.90212299  0.84343613  0.79784734     0.36400
H1483       H  0.84210186  0.74397926  0.78097637     0.16700
O1484       O  0.78541705  0.73346650  0.80474636    -0.60200
H1485       H  0.88362181  0.86899364  0.82037255     0.16800
O1486       O  0.94048627  0.87959570  0.79584812    -0.60300
H1487       H  0.93602468  0.89718647  0.78697128     0.43800
H1488       H  0.78994155  0.71436814  0.81242841     0.43700
C1489       C  0.03894932  0.79895656  0.78789767    -0.05400
C1490       C  0.06871107  0.83471431  0.79816089    -0.32800
C1491       C  0.09352406  0.83274589  0.81257492     0.36500
C1492       C  0.08920167  0.79449884  0.81690259    -0.05700
C1493       C  0.05991966  0.75902187  0.80633585    -0.32700
C1494       C  0.03523777  0.76095777  0.79201062     0.36400
H1495       H  0.07239497  0.86431506  0.79524787     0.16700
O1496       O  0.12154019  0.86842590  0.82237619    -0.60200
H1497       H  0.05591740  0.72923252  0.80910539     0.16800
O1498       O  0.00752672  0.72519826  0.78215741    -0.60300
H1499       H  0.02307806  0.72494640  0.77071280     0.43800
H1500       H  0.10577419  0.86966197  0.83347355     0.43700
C1501       C  0.72548784  0.85693948  0.53886650    -0.05400
C1502       C  0.72210459  0.88543303  0.55016611    -0.32800
C1503       C  0.73706934  0.89459416  0.56922556     0.36500
C1504       C  0.75626691  0.87531482  0.57745568    -0.05700
C1505       C  0.76121302  0.84817419  0.56585469    -0.32700
C1506       C  0.74641717  0.83919024  0.54676831     0.36400
H1507       H  0.70661198  0.89990317  0.54446920     0.16700
O1508       O  0.73186026  0.92185078  0.57969928    -0.60200
H1509       H  0.77641446  0.83345511  0.57160924     0.16800
O1510       O  0.75231351  0.81259848  0.53612855    -0.54300
H1511       H  0.77874815  0.83078692  0.52899354     0.43800
H1512       H  0.70361064  0.90468624  0.58542737     0.43700
C1513       C  0.84008080  0.80266619  0.67537781    -0.05400
C1514       C  0.82770584  0.76746131  0.68684826    -0.32800
C1515       C  0.85293152  0.76834011  0.70167452     0.36500
C1516       C  0.89215311  0.80497151  0.70541193    -0.05700
C1517       C  0.90417737  0.84080007  0.69439662    -0.32700
C1518       C  0.87857853  0.83983970  0.67945657     0.36400
H1519       H  0.79808855  0.73860244  0.68430545     0.16700
O1520       O  0.83876496  0.73274211  0.71227948    -0.60200
H1521       H  0.93394758  0.86940593  0.69702839     0.16800
O1522       O  0.89209041  0.87505768  0.66867448    -0.60300
H1523       H  0.90818915  0.87350417  0.65782519     0.43800
H1524       H  0.82353348  0.73480835  0.72338735     0.43700
C1525       C  0.82735815  0.02172401  0.67970541    -0.05400
C1526       C  0.81648771  0.04317976  0.69222314    -0.32800
C1527       C  0.84404740  0.07001187  0.70641304     0.36500
C1528       C  0.88386389  0.07652776  0.70822729    -0.05700
C1529       C  0.89419445  0.05370659  0.69634949    -0.32700
C1530       C  0.86643343  0.02661565  0.68212445     0.36400
H1531       H  0.78646587  0.03947867  0.69093968     0.16700
O1532       O  0.83165907  0.08993181  0.71834639    -0.60200
H1533       H  0.92444699  0.05792235  0.69761019     0.16800
O1534       O  0.87852104  0.00626974  0.67031462    -0.60300
H1535       H  0.89335686  0.02556299  0.65933301     0.43800
H1536       H  0.82064313  0.07234732  0.73015547     0.43700
C1537       C  0.94662264  0.31096416  0.50933202    -0.05400
C1538       C  0.97246712  0.34658146  0.49797513    -0.32800
C1539       C  0.99654857  0.38602077  0.50661679     0.36500
C1540       C  0.99469887  0.39019410  0.52682238    -0.05700
C1541       C  0.97121571  0.35445298  0.53821996    -0.32700
C1542       C  0.94742544  0.31516067  0.52971020     0.36400
H1543       H  0.97270329  0.34413628  0.48232285     0.16700
O1544       O  0.02033257  0.42040968  0.49516840    -0.60200
H1545       H  0.97026200  0.35716349  0.55384206     0.16800
O1546       O  0.92534437  0.28097742  0.54148938    -0.60300
H1547       H  0.90410680  0.28416919  0.54794233     0.43800
H1548       H  0.04847219  0.42512243  0.49519288     0.43700
C1549       C  0.90342983  0.21442625  0.45356049    -0.05400
C1550       C  0.94365541  0.23941548  0.44569924    -0.32800
C1551       C  0.95347911  0.23109328  0.42743362     0.36500
C1552       C  0.92276685  0.19709864  0.41627968    -0.05700
C1553       C  0.88252627  0.17193195  0.42415913    -0.32700
C1554       C  0.87266731  0.18040309  0.44245529     0.36400
H1555       H  0.96806866  0.26573047  0.45376156     0.16700
O1556       O  0.99333268  0.25690958  0.42066546    -0.60200
H1557       H  0.85815179  0.14580427  0.41598975     0.16800
O1558       O  0.83269479  0.15518457  0.44917355    -0.60300
H1559       H  0.81779262  0.16801549  0.44437527     0.43800
H1560       H  0.00878424  0.24468874  0.42549499     0.43700
C1561       C  0.97320242  0.56077929  0.52695877    -0.05400
C1562       C  0.93785318  0.55542836  0.53586996    -0.32800
C1563       C  0.91311545  0.56655839  0.52634724     0.36500
C1564       C  0.92358693  0.58368495  0.50736004    -0.05700
C1565       C  0.95934976  0.58902269  0.49849816    -0.32700
C1566       C  0.98389123  0.57748969  0.50812626     0.36400
H1567       H  0.92924232  0.54225668  0.55033474     0.16700
O1568       O  0.87843738  0.55981515  0.53577605    -0.60200
H1569       H  0.96834552  0.60202735  0.48403468     0.16800
O1570       O  0.01869033  0.58339456  0.49919663    -0.60300
H1571       H  0.00890621  0.55732693  0.49191605     0.43800
H1572       H  0.88853947  0.58460664  0.54412245     0.43700
C1573       C  0.89582776  0.64381328  0.45000900    -0.05400
C1574       C  0.93806403  0.66885247  0.44483195    -0.32800
C1575       C  0.95023456  0.68863902  0.42669072     0.36500
C1576       C  0.91998685  0.68379883  0.41332310    -0.05700
C1577       C  0.87780166  0.65888235  0.41852557    -0.32700
C1578       C  0.86560978  0.63889809  0.43658991     0.36400
H1579       H  0.96187269  0.67354006  0.45496734     0.16700
O1580       O  0.99185343  0.71374510  0.42244164    -0.60200
H1581       H  0.85393717  0.65380597  0.40832425     0.16800
O1582       O  0.82394963  0.61284337  0.44052999    -0.60300
H1583       H  0.81406033  0.63143377  0.44330844     0.43800
H1584       H  0.00036486  0.69452032  0.41856947     0.43700
C1585       C  0.68103428  0.63431097  0.60964460    -0.05400
C1586       C  0.66980337  0.66341506  0.60957014    -0.32800
C1587       C  0.69474816  0.70176270  0.61882869     0.36500
C1588       C  0.73177187  0.71153800  0.62828294    -0.05700
C1589       C  0.74169897  0.68129151  0.62918703    -0.32700
C1590       C  0.71676314  0.64300430  0.61977754     0.36400
H1591       H  0.64227801  0.65683138  0.60178164     0.16700
O1592       O  0.68293066  0.72967738  0.61824092    -0.60200
H1593       H  0.76974610  0.68796407  0.63647904     0.16800
O1594       O  0.72793903  0.61458327  0.62017202    -0.60300
H1595       H  0.74612572  0.62118142  0.60868905     0.43800
H1596       H  0.66774516  0.72544044  0.63056739     0.43700
C1597       C  0.79999858  0.59161173  0.50623444    -0.05400
C1598       C  0.79772655  0.58735947  0.52654544    -0.32800
C1599       C  0.76163535  0.57679192  0.53658795     0.36500
C1600       C  0.72676107  0.57022672  0.52640913    -0.05700
C1601       C  0.72909669  0.57572264  0.50621577    -0.32700
C1602       C  0.76535421  0.58627871  0.49608741     0.36400
H1603       H  0.82384774  0.59156315  0.53476230     0.16700
O1604       O  0.75984641  0.57062010  0.55627816    -0.60200
H1605       H  0.70227945  0.57054296  0.49825829     0.16800
O1606       O  0.76590666  0.58982752  0.47628087    -0.60300
H1607       H  0.75524737  0.56146821  0.47129037     0.43800
H1608       H  0.77483751  0.59887150  0.56205150     0.43700
C1609       C  0.50898197  0.30554160  0.51196684    -0.05400
C1610       C  0.51157650  0.33834949  0.50142713    -0.32800
C1611       C  0.52408467  0.37616989  0.51054380     0.36500
C1612       C  0.53349426  0.38124138  0.53048699    -0.05700
C1613       C  0.52894087  0.34795291  0.54116591    -0.32700
C1614       C  0.51669776  0.31040435  0.53216973     0.36400
H1615       H  0.50556499  0.33537359  0.48596100     0.16700
O1616       O  0.52767500  0.40819753  0.49987220    -0.60200
H1617       H  0.53629665  0.35162502  0.55651633     0.16800
O1618       O  0.51347731  0.27910111  0.54329394    -0.60300
H1619       H  0.48376702  0.26162815  0.54712678     0.43800
H1620       H  0.55449231  0.42068576  0.49284127     0.43700
C1621       C  0.42406892  0.19144525  0.41652650    -0.05400
C1622       C  0.42805164  0.22545633  0.42646850    -0.32800
C1623       C  0.44367595  0.23536949  0.44543197     0.36500
C1624       C  0.45641729  0.21142727  0.45499700    -0.05700
C1625       C  0.45109833  0.17658189  0.44530354    -0.32700
C1626       C  0.43522092  0.16651514  0.42637387     0.36400
H1627       H  0.41945451  0.24502984  0.41947352     0.16700
O1628       O  0.44714541  0.26924025  0.45417994    -0.60200
H1629       H  0.45988551  0.15712707  0.45225864     0.16800
O1630       O  0.43102971  0.13223926  0.41771060    -0.60300
H1631       H  0.45922453  0.14165086  0.41289935     0.43800
H1632       H  0.41993693  0.25836032  0.46061658     0.43700
C1633       C  0.71714784  0.99663035  0.63357707    -0.05400
C1634       C  0.68648579  0.96965461  0.62011524    -0.32800
C1635       C  0.66241720  0.98125331  0.61026648     0.36500
C1636       C  0.66911851  0.02063454  0.61348705    -0.05700
C1637       C  0.69774388  0.04667301  0.62769253    -0.32700
C1638       C  0.72154741  0.03493242  0.63779880     0.36400
H1639       H  0.68185528  0.93981607  0.61674595     0.16700
O1640       O  0.63437023  0.95505930  0.59655287    -0.60200
H1641       H  0.70281509  0.07694618  0.63039035     0.16800
O1642       O  0.75003102  0.06191489  0.65117089    -0.60300
H1643       H  0.77568763  0.08076832  0.64363524     0.43800
H1644       H  0.60696604  0.94056286  0.60316983     0.43700
C1645       C  0.73141913  0.13359176  0.52885901    -0.05400
C1646       C  0.76721866  0.16093518  0.53953469    -0.32800
C1647       C  0.80615649  0.18327408  0.53066638     0.36500
C1648       C  0.81004338  0.17959596  0.51047862    -0.05700
C1649       C  0.77421539  0.15079457  0.49988576    -0.32700
C1650       C  0.73505253  0.12783592  0.50896945     0.36400
H1651       H  0.76487066  0.16510909  0.55493138     0.16700
O1652       O  0.84014155  0.20876265  0.54201264    -0.60200
H1653       H  0.77629066  0.14680645  0.48446080     0.16800
O1654       O  0.70065342  0.09965919  0.49842215    -0.60300
H1655       H  0.69291757  0.11649355  0.49087670     0.43800
H1656       H  0.85120834  0.19163592  0.54581850     0.43700
C1657       C  0.52215835  0.18553514  0.51079912    -0.05400
C1658       C  0.53430451  0.19414776  0.53041224    -0.32800
C1659       C  0.54969750  0.17345892  0.54024973     0.36500
C1660       C  0.55336943  0.14332825  0.53063549    -0.05700
C1661       C  0.54124693  0.13425073  0.51110773    -0.32700
C1662       C  0.52583702  0.15514731  0.50114612     0.36400
H1663       H  0.53203254  0.21720349  0.53833537     0.16700
O1664       O  0.56221060  0.18367922  0.55919999    -0.60200
H1665       H  0.54382276  0.11094659  0.50358876     0.16800
O1666       O  0.51477510  0.14569312  0.48202972    -0.60300
H1667       H  0.54054754  0.16465660  0.47458976     0.43800
H1668       H  0.53618099  0.16975818  0.56694064     0.43700
C1669       C  0.26077563  0.86848131  0.58305491    -0.05400
C1670       C  0.23235609  0.83091071  0.57362618    -0.32800
C1671       C  0.24160469  0.82091027  0.55564749     0.36500
C1672       C  0.28024809  0.84860939  0.54650982    -0.05700
C1673       C  0.30854058  0.88643832  0.55583818    -0.32700
C1674       C  0.29931857  0.89640193  0.57387797     0.36400
H1675       H  0.20263077  0.80866409  0.58024614     0.16700
O1676       O  0.21258770  0.78349479  0.54740932    -0.60200
H1677       H  0.33837239  0.90851637  0.54926411     0.16800
O1678       O  0.32838024  0.93366740  0.58226890    -0.60300
H1679       H  0.34785275  0.92843160  0.58913192     0.43800
H1680       H  0.19350830  0.78875905  0.54019104     0.43700
C1681       C  0.33047102  0.03068677  0.68043172    -0.05400
C1682       C  0.29300516  0.02891407  0.68249491    -0.32800
C1683       C  0.28886422  0.05306890  0.69647304     0.36500
C1684       C  0.32259561  0.07987342  0.70871132    -0.05700
C1685       C  0.35972976  0.08106081  0.70686423    -0.32700
C1686       C  0.36388228  0.05692694  0.69298843     0.36400
H1687       H  0.26695540  0.00935718  0.67297721     0.16700
O1688       O  0.25231103  0.05152031  0.69742558    -0.60200
H1689       H  0.38586864  0.10072252  0.71632725     0.16800
O1690       O  0.40045731  0.05843494  0.69228508    -0.60300
H1691       H  0.42007549  0.08410946  0.68492258     0.43800
H1692       H  0.23360595  0.02700317  0.70565303     0.43700
C1693       C  0.41950691  0.00939908  0.63640107    -0.05400
C1694       C  0.45265778  0.05136356  0.63665898    -0.32800
C1695       C  0.48989954  0.06421489  0.62688583     0.36500
C1696       C  0.49446544  0.03492745  0.61689463    -0.05700
C1697       C  0.46253034  0.99279761  0.61762521    -0.32700
C1698       C  0.42531981  0.97987930  0.62726983     0.36400
H1699       H  0.44894513  0.07453525  0.64354673     0.16700
O1700       O  0.52073413  0.10571267  0.62620572    -0.60200
H1701       H  0.46578914  0.97008739  0.60993053     0.16800
O1702       O  0.39427909  0.93840164  0.62706008    -0.60300
H1703       H  0.39862980  0.92671454  0.63897003     0.43800
H1704       H  0.53998542  0.11001542  0.63691269     0.43700
C1705       C  0.08681719  0.79021214  0.67660975    -0.05400
C1706       C  0.10219112  0.82812881  0.68638883    -0.32800
C1707       C  0.07877862  0.83200160  0.70091363     0.36500
C1708       C  0.03874080  0.79776042  0.70583169    -0.05700
C1709       C  0.02346905  0.75990910  0.69611409    -0.32700
C1710       C  0.04688506  0.75584184  0.68177338     0.36400
H1711       H  0.13274678  0.85497712  0.68292892     0.16700
O1712       O  0.09560654  0.86943050  0.71023438    -0.60200
H1713       H  0.99282179  0.73308450  0.69948710     0.16800
O1714       O  0.02953741  0.71824926  0.67252928    -0.60300
H1715       H  0.03513399  0.70108986  0.68113536     0.43800
H1716       H  0.11052964  0.86776351  0.72159634     0.43700
C1717       C  0.11054560  0.70394834  0.63184659    -0.05400
C1718       C  0.06828813  0.67154577  0.63112593    -0.32800
C1719       C  0.05557511  0.63455621  0.62116916     0.36500
C1720       C  0.08531403  0.62918644  0.61218845    -0.05700
C1721       C  0.12759492  0.66039418  0.61383521    -0.32700
C1722       C  0.14035103  0.69766365  0.62341752     0.36400
H1723       H  0.04488644  0.67560954  0.63748417     0.16700
O1724       O  0.01399946  0.60409287  0.61993926    -0.60200
H1725       H  0.15069363  0.65647994  0.60698542     0.16800
O1726       O  0.18210830  0.72768867  0.62452860    -0.60300
H1727       H  0.18970392  0.74138390  0.61161924     0.43800
H1728       H  0.00359255  0.61192232  0.60865912     0.43700
C1729       C  0.26038645  0.37251095  0.58195203    -0.05400
C1730       C  0.23117953  0.37599157  0.57126299    -0.32800
C1731       C  0.23983349  0.39207430  0.55242614     0.36500
C1732       C  0.27872977  0.40575484  0.54383742    -0.05700
C1733       C  0.30724481  0.40061130  0.55422695    -0.32700
C1734       C  0.29834261  0.38399890  0.57298942     0.36400
H1735       H  0.20145349  0.36674646  0.57759492     0.16700
O1736       O  0.21021982  0.39509382  0.54284462    -0.60200
H1737       H  0.33719768  0.41034655  0.54801659     0.16800
O1738       O  0.32796088  0.38111785  0.58265463    -0.60300
H1739       H  0.32266266  0.35363259  0.57896531     0.43800
H1740       H  0.19257677  0.36806884  0.53609728     0.43700
C1741       C  0.04308969  0.23860431  0.70489772    -0.05400
C1742       C  0.04755531  0.27739190  0.70352340    -0.32800
C1743       C  0.07486335  0.30723929  0.69016630     0.36500
C1744       C  0.09855146  0.29870926  0.67779142    -0.05700
C1745       C  0.09471704  0.26017703  0.67937464    -0.32700
C1746       C  0.06733957  0.23026210  0.69282261     0.36400
H1747       H  0.03003699  0.28494603  0.71300447     0.16700
O1748       O  0.07910169  0.34515247  0.68980811    -0.60200
H1749       H  0.11227300  0.25273558  0.66986347     0.16800
O1750       O  0.06324601  0.19244025  0.69342009    -0.60300
H1751       H  0.08709237  0.19709742  0.70129255     0.43800
H1752       H  0.05469429  0.34052956  0.68243337     0.43700
C1753       C  0.12874564  0.40971791  0.63143555    -0.05400
C1754       C  0.08765349  0.39966511  0.63299958    -0.32800
C1755       C  0.07488829  0.42261443  0.62297693     0.36500
C1756       C  0.10337405  0.45657377  0.61137918    -0.05700
C1757       C  0.14493393  0.46827676  0.61061745    -0.32700
C1758       C  0.15769317  0.44497025  0.62038462     0.36400
H1759       H  0.06475393  0.37277540  0.64130814     0.16700
O1760       O  0.03390380  0.41017899  0.62367545    -0.60200
H1761       H  0.16706591  0.49441485  0.60169647     0.16800
O1762       O  0.19849270  0.45695931  0.61900491    -0.60300
H1763       H  0.20079787  0.44636911  0.60625577     0.43800
H1764       H  0.03182009  0.42475294  0.63505688     0.43700
C1765       C  0.31417891  0.22932542  0.71041357    -0.05400
C1766       C  0.34811070  0.27088460  0.71083649    -0.32800
C1767       C  0.35129934  0.30010598  0.69761493     0.36500
C1768       C  0.32033762  0.28817863  0.68339988    -0.05700
C1769       C  0.28492442  0.24727464  0.68370417    -0.32700
C1770       C  0.28156677  0.21795529  0.69716863     0.36400
H1771       H  0.37272706  0.28089085  0.72141866     0.16700
O1772       O  0.38465125  0.34053818  0.69889446    -0.60200
H1773       H  0.26065881  0.23747373  0.67295848     0.16800
O1774       O  0.24757726  0.17784792  0.69644896    -0.60300
H1775       H  0.22604350  0.17785909  0.70441944     0.43800
H1776       H  0.40856509  0.34052165  0.69340843     0.43700
C1777       C  0.41628052  0.39728888  0.63720801    -0.05400
C1778       C  0.44644428  0.38730194  0.63877203    -0.32800
C1779       C  0.48390827  0.41002236  0.62838014     0.36500
C1780       C  0.49156900  0.44325569  0.61642291    -0.05700
C1781       C  0.46308673  0.45522571  0.61601923    -0.32700
C1782       C  0.42561372  0.43252576  0.62619139     0.36400
H1783       H  0.44009336  0.36056799  0.64718995     0.16700
O1784       O  0.51175771  0.39814851  0.62911358    -0.60200
H1785       H  0.46903689  0.48107162  0.60698018     0.16800
O1786       O  0.39813309  0.44488252  0.62510563    -0.60300
H1787       H  0.38504038  0.43586781  0.61210998     0.43800
H1788       H  0.53156185  0.41526918  0.63957133     0.43700
loop_ 
_geom_bond_atom_site_label_1 
_geom_bond_atom_site_label_2 
_geom_bond_distance 
_geom_bond_site_symmetry_2 
_ccdc_geom_bond_type 
C1            N2   1.368       .  A
C1            N6   1.365       .  A
C1         C1768   1.485       .  S
N2            C3   1.362       .  A
C3            N4   1.351       .  A
C3           C17   1.466       .  S
N4            C5   1.348       .  A
C5            N6   1.356       .  A
C5         C1777   1.482       .  S
C7            N8   1.355       .  A
C7           N12   1.357       .  A
C7         C1753   1.487       .  S
N8            C9   1.358       .  A
C9           N10   1.354       .  A
C9           C15   1.460       .  S
N10          C11   1.359       .  A
C11          N12   1.361       .  A
C11        C1744   1.478       .  S
C13          N14   1.352       .  A
C13          N18   1.353       .  A
C13        C1729   1.485       .  S
N14          C15   1.354       .  A
C15          N16   1.364       .  A
N16          C17   1.362       .  A
C17          N18   1.359       .  A
C19          N20   1.370       .  A
C19          N24   1.365       .  A
C19        C1705   1.496       .  S
N20          C21   1.362       .  A
C21          N22   1.353       .  A
C21          C35   1.471       .  S
N22          C23   1.349       .  A
C23          N24   1.357       .  A
C23        C1717   1.484       .  S
C25          N26   1.366       .  A
C25          N30   1.369   1_545  A
C25        C1681   1.490       .  S
N26          C27   1.357   1_545  A
C27          N28   1.348       .  A
C27        C1693   1.483   1_565  S
N28          C29   1.352       .  A
C29          N30   1.360       .  A
C29          C33   1.467       .  S
C31          N32   1.349       .  A
C31          N36   1.353       .  A
C31        C1669   1.492       .  S
N32          C33   1.358       .  A
C33          N34   1.365       .  A
N34          C35   1.365       .  A
C35          N36   1.360       .  A
N37          C42   1.354       .  A
N37          C41   1.352       .  A
N37          H69   1.033       .  S
N38          C45   1.353       .  A
N38          C46   1.353       .  A
N39          C44   1.353       .  A
N39          C43   1.353       .  A
N39          H70   1.036       .  S
N40          C47   1.351       .  A
N40          C48   1.351       .  A
C41          C49   1.386       .  A
C41          C57   1.416       .  A
C42          C58   1.421       .  A
C42          C50   1.390       .  A
C43          C51   1.386       .  A
C43          C60   1.415       .  A
C44          C59   1.417       .  A
C44          C52   1.388       .  A
C45          C57   1.416       .  A
C45          C53   1.387       .  A
C46          C60   1.414       .  A
C46          C54   1.385       .  A
C47          C55   1.387       .  A
C47          C58   1.416       .  A
C48          C56   1.386       .  A
C48          C59   1.414       .  A
C49          C50   1.374       .  A
C49          H61   1.083       .  S
C50          H62   1.081       .  S
C51          C52   1.373       .  A
C51          H63   1.082       .  S
C52          H64   1.082       .  S
C53          C54   1.373       .  A
C53          H65   1.082       .  S
C54          H66   1.082       .  S
C55          C56   1.375       .  A
C55          H67   1.082       .  S
C56          H68   1.082       .  S
C57        C1645   1.488       .  S
C58        C1636   1.488       .  S
C59        C1696   1.484       .  S
C60        C1660   1.490       .  S
C71          N72   1.353       .  A
C71          N76   1.358       .  A
C71        C1609   1.485       .  S
N72          C73   1.354       .  A
C73          N74   1.361       .  A
C73        C1657   1.492       .  S
N74          C75   1.366       .  A
C75          N76   1.362       .  A
C75        C1624   1.495       .  S
N77          C82   1.353       .  A
N77          C81   1.355       .  A
N77         H109   1.039       .  S
N78          C85   1.350       .  A
N78          C86   1.350       .  A
N79          C84   1.351       .  A
N79          C83   1.351       .  A
N79         H110   1.036       .  S
N80          C87   1.351       .  A
N80          C88   1.352       .  A
C81          C89   1.387       .  A
C81          C97   1.415       .  A
C82          C98   1.415       .  A
C82          C90   1.387       .  A
C83          C91   1.387       .  A
C83         C100   1.413       .  A
C84          C99   1.413       .  A
C84          C92   1.387       .  A
C85          C97   1.409       .  A
C85          C93   1.385       .  A
C86         C100   1.413       .  A
C86          C94   1.388       .  A
C87          C95   1.385       .  A
C87          C98   1.412       .  A
C88          C96   1.388       .  A
C88          C99   1.415       .  A
C89          C90   1.372       .  A
C89         H101   1.082       .  S
C90         H102   1.082       .  S
C91          C92   1.378       .  A
C91         H103   1.082       .  S
C92         H104   1.082       .  S
C93          C94   1.371       .  A
C93         H105   1.082       .  S
C94         H106   1.082       .  S
C95          C96   1.372       .  A
C95         H107   1.082       .  S
C96         H108   1.082       .  S
C97        C1600   1.486       .  S
C98        C1612   1.486       .  S
C99        C1780   1.482       .  S
C100       C1585   1.480       .  S
C111        N112   1.355       .  A
C111        N116   1.357       .  A
C111       C1597   1.485       .  S
N112        C113   1.355       .  A
C113        N114   1.363       .  A
C113       C1564   1.496       .  S
N114        C115   1.365       .  A
C115        N116   1.361       .  A
C115       C1573   1.486       .  S
C117        N118   1.364       .  A
C117        N122   1.364       .  A
C117       C1549   1.495       .  S
N118        C119   1.359       .  A
C119        N120   1.354       .  A
C119       C1537   1.485       .  S
N120        C121   1.355       .  A
C121        N122   1.361       .  A
C121       C1648   1.489       .  S
N123        C128   1.353       .  A
N123        C127   1.352       .  A
N123        H155   1.035       .  S
N124        C131   1.352   1_455  A
N124        C132   1.352   1_455  A
N125        C130   1.353       .  A
N125        C129   1.353       .  A
N125        H156   1.036       .  S
N126        C133   1.352       .  A
N126        C134   1.351       .  A
C127        C135   1.386       .  A
C127        C143   1.414       .  A
C128        C144   1.416       .  A
C128        C136   1.389       .  A
C129        C137   1.385       .  A
C129        C146   1.413   1_455  A
C130        C145   1.418       .  A
C130        C138   1.389       .  A
C131        C143   1.415   1_655  A
C131        C139   1.387       .  A
C132        C146   1.412       .  A
C132        C140   1.385       .  A
C133        C141   1.386       .  A
C133        C144   1.414       .  A
C134        C142   1.386       .  A
C134        C145   1.414       .  A
C135        C136   1.375       .  A
C135        H147   1.083       .  S
C136        H148   1.082       .  S
C137        C138   1.375       .  A
C137        H149   1.082       .  S
C138        H150   1.082       .  S
C139        C140   1.372       .  A
C139        H151   1.082       .  S
C140        H152   1.082       .  S
C141        C142   1.377       .  A
C141        H153   1.082       .  S
C142        H154   1.082       .  S
C143       C1540   1.488   1_455  S
C144       C1756   1.486       .  S
C145       C1720   1.486       .  S
C146       C1561   1.486       .  S
C157        N158   1.354       .  A
C157        N162   1.358   1_565  A
C157       C1633   1.490       .  S
N158        C159   1.356       .  A
C159        N160   1.357       .  A
C159        C171   1.463       .  S
N160        C161   1.362       .  A
C161        N162   1.364   1_565  A
C161       C1525   1.484   1_565  S
C163        N164   1.368       .  A
C163        N168   1.362       .  A
C163       C1513   1.490       .  S
N164        C165   1.364       .  A
C165        N166   1.354       .  A
C165        C173   1.468       .  S
N166        C167   1.350       .  A
C167        N168   1.354       .  A
C167       C1588   1.480       .  S
C169        N170   1.352       .  A
C169        N174   1.356       .  A
C169       C1504   1.489       .  S
N170        C171   1.356       .  A
C171        N172   1.363       .  A
N172        C173   1.362       .  A
C173        N174   1.361       .  A
O175       Ni183   1.916       .  S
O175        C185   1.283       .  A
O176       Ni183   1.917       .  S
O176        C186   1.282   1_655  A
O177       Ni183   1.907       .  S
O177        C187   1.279   1_655  A
O178       Ni183   1.905       .  S
O178        C188   1.279       .  A
O179       Ni184   1.934       .  S
O179        C188   1.285       .  A
O180       Ni184   1.931   1_455  S
O180        C187   1.285       .  A
O181       Ni184   1.928   1_455  S
O181        C186   1.283       .  A
O182       Ni184   1.930       .  S
O182        C185   1.283       .  A
Ni183      Ni184   2.382       .  S
C185       C1477   1.492       .  S
C186       C1708   1.492       .  S
C187       C1489   1.490       .  S
C188       C1516   1.491       .  S
O189       Ni197   1.903       .  S
O189        C199   1.279   1_655  A
O190       Ni197   1.904       .  S
O190        C200   1.279       .  A
O191       Ni197   1.903       .  S
O191        C201   1.279   1_655  A
O192       Ni197   1.905       .  S
O192        C202   1.279       .  A
O193       Ni198   1.925       .  S
O193        C202   1.283       .  A
O194       Ni198   1.925   1_455  S
O194        C201   1.284       .  A
O195       Ni198   1.923       .  S
O195        C200   1.283       .  A
O196       Ni198   1.921   1_455  S
O196        C199   1.282       .  A
Ni197      Ni198   2.385       .  S
C199       C1741   1.477       .  S
C200       C1453   1.483       .  S
C201       C1465   1.486       .  S
C202       C1528   1.481       .  S
O203       Ni211   1.929       .  S
O203        C213   1.283       .  A
O204       Ni211   1.928       .  S
O204        C214   1.283       .  A
O205       Ni211   1.931       .  S
O205        C215   1.285       .  A
O206       Ni211   1.930       .  S
O206        C216   1.283       .  A
O207       Ni212   1.909       .  S
O207        C216   1.281       .  A
O208       Ni212   1.911       .  S
O208        C215   1.280       .  A
O209       Ni212   1.914       .  S
O209        C214   1.281       .  A
O210       Ni212   1.909       .  S
O210        C213   1.281       .  A
Ni211      Ni212   2.384       .  S
C213       C1444   1.487       .  S
C214       C1684   1.488       .  S
C215       C1429   1.491       .  S
C216       C1765   1.485       .  S
C217        N218   1.371       .  A
C217        N222   1.364       .  A
C217       C1441   1.489       .  S
N218        C219   1.365       .  A
C219        N220   1.350       .  A
C219        C233   1.466       .  S
N220        C221   1.345       .  A
C221        N222   1.354       .  A
C221       C1420   1.480       .  S
C223        N224   1.357       .  A
C223        N228   1.353       .  A
C223       C1408   1.478       .  S
N224        C225   1.364       .  A
C225        N226   1.361       .  A
C225       C1468   1.488       .  S
N226        C227   1.356       .  A
C227        N228   1.356       .  A
C227        C231   1.463       .  S
C229        N230   1.352       .  A
C229        N234   1.351       .  A
C229       C1393   1.490       .  S
N230        C231   1.357       .  A
C231        N232   1.365       .  A
N232        C233   1.362       .  A
C233        N234   1.359       .  A
N235        C240   1.357       .  A
N235        C239   1.354       .  A
N235        H267   1.034       .  S
N236        C243   1.353       .  A
N236        C244   1.354       .  A
N237        C242   1.353       .  A
N237        C241   1.353       .  A
N237        H268   1.031       .  S
N238        C245   1.350       .  A
N238        C246   1.351       .  A
C239        C247   1.388       .  A
C239        C255   1.421       .  A
C240        C256   1.420       .  A
C240        C248   1.387       .  A
C241        C249   1.388       .  A
C241        C258   1.419       .  A
C242        C257   1.419       .  A
C242        C250   1.388       .  A
C243        C255   1.419       .  A
C243        C251   1.387       .  A
C244        C258   1.418       .  A
C244        C252   1.386       .  A
C245        C253   1.386       .  A
C245        C256   1.414       .  A
C246        C254   1.387       .  A
C246        C257   1.414       .  A
C247        C248   1.372       .  A
C247        H259   1.082       .  S
C248        H260   1.082       .  S
C249        C250   1.371       .  A
C249        H261   1.082       .  S
C250        H262   1.082       .  S
C251        C252   1.377       .  A
C251        H263   1.082   1_545  S
C252        H264   1.082   1_545  S
C253        C254   1.372       .  A
C253        H265   1.082       .  S
C254        H266   1.082       .  S
C255       C1369   1.490       .  S
C256       C1381   1.489       .  S
C257       C1357   1.483       .  S
C258       C1345   1.488       .  S
C269        N270   1.364       .  A
C269        N274   1.366       .  A
C269       C1336   1.495       .  S
N270        C271   1.359   1_554  A
C271        N272   1.353       .  A
C271       C1324   1.482       .  S
N272        C273   1.353   1_556  A
C273        N274   1.359       .  A
C273       C1384   1.484   1_554  S
C275        N276   1.353       .  A
C275        N280   1.361   1_565  A
C275       C1372   1.497   1_565  S
N276        C277   1.354       .  A
C277        N278   1.354       .  A
C277        C289   1.464       .  S
N278        C279   1.363   1_565  A
C279        N280   1.366       .  A
C279       C1456   1.489       .  S
C281        N282   1.372       .  A
C281        N286   1.363       .  A
C281       C1480   1.495       .  S
N282        C283   1.366       .  A
C283        N284   1.353       .  A
C283        C291   1.469       .  S
N284        C285   1.346       .  A
C285        N286   1.353       .  A
C285       C1309   1.479       .  S
C287        N288   1.351       .  A
C287        N292   1.351       .  A
C287       C1297   1.487       .  S
N288        C289   1.357       .  A
C289        N290   1.366       .  A
N290        C291   1.364       .  A
C291        N292   1.358       .  A
N293        C298   1.353       .  A
N293        C297   1.350       .  A
N293        H325   1.036       .  S
N294        C301   1.352       .  A
N294        C302   1.354   1_455  A
N295        C300   1.352       .  A
N295        C299   1.353       .  A
N295        H326   1.038       .  S
N296        C303   1.350       .  A
N296        C304   1.348       .  A
C297        C305   1.387       .  A
C297        C313   1.413       .  A
C298        C314   1.415       .  A
C298        C306   1.387       .  A
C299        C307   1.385       .  A
C299        C316   1.413       .  A
C300        C315   1.415       .  A
C300        C308   1.389       .  A
C301        C313   1.417       .  A
C301        C309   1.388   1_455  A
C302        C316   1.414   1_655  A
C302        C310   1.385       .  A
C303        C311   1.386       .  A
C303        C314   1.410       .  A
C304        C312   1.386       .  A
C304        C315   1.409       .  A
C305        C306   1.376       .  A
C305        H317   1.083       .  S
C306        H318   1.083       .  S
C307        C308   1.375       .  A
C307        H319   1.082       .  S
C308        H320   1.082       .  S
C309        C310   1.375       .  A
C309        H321   1.082       .  S
C310        H322   1.082       .  S
C311        C312   1.375       .  A
C311        H323   1.082       .  S
C312        H324   1.082       .  S
C313       C1321   1.485   1_455  S
C314       C1405   1.485       .  S
C315       C1273   1.477       .  S
C316       C1288   1.495   1_455  S
C327        N328   1.365       .  A
C327        N332   1.360       .  A
C327       C1261   1.493       .  S
N328        C329   1.360   1_554  A
C329        N330   1.357       .  A
C329       C1285   1.495       .  S
N330        C331   1.357       .  A
C331        N332   1.358   1_556  A
C331       C1249   1.485       .  S
N333        C338   1.354       .  A
N333        C337   1.353       .  A
N333        H365   1.038       .  S
N334        C341   1.351       .  A
N334        C342   1.351       .  A
N335        C340   1.351       .  A
N335        C339   1.353       .  A
N335        H366   1.036       .  S
N336        C343   1.351       .  A
N336        C344   1.350       .  A
C337        C345   1.388       .  A
C337        C353   1.416       .  A
C338        C354   1.413       .  A
C338        C346   1.386       .  A
C339        C347   1.387       .  A
C339        C356   1.414       .  A
C340        C355   1.413       .  A
C340        C348   1.387       .  A
C341        C353   1.411       .  A
C341        C349   1.385       .  A
C342        C356   1.414       .  A
C342        C350   1.387       .  A
C343        C351   1.385       .  A
C343        C354   1.410       .  A
C344        C352   1.388       .  A
C344        C355   1.413       .  A
C345        C346   1.373       .  A
C345        H357   1.082       .  S
C346        H358   1.082       .  S
C347        C348   1.377       .  A
C347        H359   1.082       .  S
C348        H360   1.082       .  S
C349        C350   1.372       .  A
C349        H361   1.082       .  S
C350        H362   1.083       .  S
C351        C352   1.370       .  A
C351        H363   1.082       .  S
C352        H364   1.082       .  S
C353       C1252   1.484       .  S
C354       C1237   1.486       .  S
C355       C1417   1.478       .  S
C356       C1312   1.483       .  S
C367        N368   1.362       .  A
C367        N372   1.364       .  A
C367       C1225   1.487       .  S
N368        C369   1.358   1_554  A
C369        N370   1.354       .  A
C369       C1360   1.487       .  S
N370        C371   1.353       .  A
C371        N372   1.360   1_556  A
C371       C1240   1.484       .  S
C373        N374   1.368       .  A
C373        N378   1.367       .  A
C373       C1492   1.493       .  S
N374        C375   1.360       .  A
C375        N376   1.348       .  A
C375        C387   1.464       .  S
N376        C377   1.347       .  A
C377        N378   1.357       .  A
C377       C1276   1.482       .  S
C379        N380   1.368       .  A
C379        N384   1.365   1_545  A
C379       C1432   1.494       .  S
N380        C381   1.360   1_545  A
C381        N382   1.352       .  A
C381       C1348   1.495   1_565  S
N382        C383   1.352       .  A
C383        N384   1.358       .  A
C383        C389   1.464       .  S
C385        N386   1.351       .  A
C385        N390   1.353       .  A
C385       C1213   1.488       .  S
N386        C387   1.359       .  A
C387        N388   1.362       .  A
N388        C389   1.363       .  A
C389        N390   1.359       .  A
C391        N392   1.367       .  A
C391        N396   1.367       .  A
C391       C1189   1.496       .  S
N392        C393   1.360       .  A
C393        N394   1.354       .  A
C393        C405   1.469   1_455  S
N394        C395   1.350       .  A
C395        N396   1.358       .  A
C395       C1201   1.485       .  S
C397        N398   1.371       .  A
C397        N402   1.365       .  A
C397       C1165   1.502       .  S
N398        C399   1.366       .  A
C399        N400   1.353       .  A
C399        C407   1.474       .  S
N400        C401   1.350       .  A
C401        N402   1.356       .  A
C401       C1180   1.482       .  S
C403        N404   1.352       .  A
C403        N408   1.357       .  A
C403       C1552   1.497       .  S
N404        C405   1.357       .  A
C405        N406   1.364       .  A
N406        C407   1.364       .  A
C407        N408   1.364       .  A
C409        N410   1.371       .  A
C409        N414   1.363       .  A
C409       C1141   1.499       .  S
N410        C411   1.366       .  A
C411        N412   1.353       .  A
C411        C423   1.472       .  S
N412        C413   1.348       .  A
C413        N414   1.354       .  A
C413       C1153   1.482       .  S
C415        N416   1.351       .  A
C415        N420   1.355       .  A
C415       C1132   1.482       .  S
N416        C417   1.356       .  A
C417        N418   1.361       .  A
C417        C425   1.467       .  S
N418        C419   1.366       .  A
C419        N420   1.363       .  A
C419       C1117   1.491       .  S
C421        N422   1.354       .  A
C421        N426   1.352       .  A
C421       C1621   1.495       .  S
N422        C423   1.361       .  A
C423        N424   1.364       .  A
N424        C425   1.365       .  A
C425        N426   1.358       .  A
N427        C432   1.352       .  A
N427        C431   1.352   1_565  A
N427        H459   1.035       .  S
N428        C435   1.351       .  A
N428        C436   1.351       .  A
N429        C434   1.352       .  A
N429        C433   1.352   1_565  A
N429        H460   1.036       .  S
N430        C437   1.351       .  A
N430        C438   1.351       .  A
C431        C439   1.389       .  A
C431        C447   1.417       .  A
C432        C448   1.414       .  A
C432        C440   1.386   1_565  A
C433        C441   1.389       .  A
C433        C450   1.418       .  A
C434        C449   1.412       .  A
C434        C442   1.385       .  A
C435        C447   1.414       .  A
C435        C443   1.386       .  A
C436        C450   1.413       .  A
C436        C444   1.386       .  A
C437        C445   1.387       .  A
C437        C448   1.412       .  A
C438        C446   1.386       .  A
C438        C449   1.410       .  A
C439        C440   1.375       .  A
C439        H451   1.082       .  S
C440        H452   1.082   1_545  S
C441        C442   1.375   1_545  A
C441        H453   1.082       .  S
C442        H454   1.083       .  S
C443        C444   1.377       .  A
C443        H455   1.082       .  S
C444        H456   1.082       .  S
C445        C446   1.371       .  A
C445        H457   1.082       .  S
C446        H458   1.082       .  S
C447       C1129   1.483       .  S
C448       C1105   1.484       .  S
C449       C1096   1.482       .  S
C450       C1177   1.484       .  S
C461        N462   1.362       .  A
C461        N466   1.359       .  A
C461       C1501   1.487       .  S
N462        C463   1.360       .  A
C463        N464   1.356       .  A
C463       C1093   1.491       .  S
N464        C465   1.356       .  A
C465        N466   1.356       .  A
C465       C1081   1.483       .  S
N467        C472   1.353       .  A
N467        C471   1.354       .  A
N467        H499   1.033       .  S
N468        C475   1.352       .  A
N468        C476   1.352       .  A
N469        C474   1.352       .  A
N469        C473   1.351       .  A
N469        H500   1.035       .  S
N470        C477   1.350       .  A
N470        C478   1.351       .  A
C471        C479   1.390       .  A
C471        C487   1.421       .  A
C472        C488   1.415       .  A
C472        C480   1.385       .  A
C473        C481   1.389       .  A
C473        C490   1.416       .  A
C474        C489   1.410       .  A
C474        C482   1.385       .  A
C475        C487   1.418       .  A
C475        C483   1.387       .  A
C476        C490   1.416       .  A
C476        C484   1.385       .  A
C477        C485   1.388       .  A
C477        C488   1.412       .  A
C478        C486   1.386       .  A
C478        C489   1.409       .  A
C479        C480   1.376       .  A
C479        H491   1.082       .  S
C480        H492   1.083       .  S
C481        C482   1.373       .  A
C481        H493   1.082       .  S
C482        H494   1.083       .  S
C483        C484   1.377       .  A
C483        H495   1.082       .  S
C484        H496   1.082       .  S
C485        C486   1.372       .  A
C485        H497   1.082       .  S
C486        H498   1.082       .  S
C487       C1048   1.490       .  S
C488       C1057   1.481       .  S
C489       C1069   1.479       .  S
C490       C1204   1.486       .  S
C501        N502   1.367       .  A
C501        N506   1.365       .  A
C501       C1672   1.494       .  S
N502        C503   1.360       .  A
C503        N504   1.351       .  A
C503       C1108   1.486       .  S
N504        C505   1.350       .  A
C505        N506   1.358       .  A
C505       C1060   1.487       .  S
N507        C512   1.353       .  A
N507        C511   1.352       .  A
N507        H539   1.039       .  S
N508        C515   1.350       .  A
N508        C516   1.350       .  A
N509        C514   1.351       .  A
N509        C513   1.352       .  A
N509        H540   1.037       .  S
N510        C517   1.350       .  A
N510        C518   1.350       .  A
C511        C519   1.388       .  A
C511        C527   1.413       .  A
C512        C528   1.412       .  A
C512        C520   1.387       .  A
C513        C521   1.387       .  A
C513        C530   1.412       .  A
C514        C529   1.412       .  A
C514        C522   1.387       .  A
C515        C527   1.408       .  A
C515        C523   1.385       .  A
C516        C530   1.413       .  A
C516        C524   1.387       .  A
C517        C525   1.386       .  A
C517        C528   1.410       .  A
C518        C526   1.387       .  A
C518        C529   1.411       .  A
C519        C520   1.373       .  A
C519        H531   1.082       .  S
C520        H532   1.082       .  S
C521        C522   1.377       .  A
C521        H533   1.082       .  S
C522        H534   1.082       .  S
C523        C524   1.372       .  A
C523        H535   1.082       .  S
C524        H536   1.082       .  S
C525        C526   1.372       .  A
C525        H537   1.083       .  S
C526        H538   1.082       .  S
C527       C1084   1.481       .  S
C528       C1036   1.483       .  S
C529       C1156   1.480       .  S
C530       C1021   1.482       .  S
C541        N542   1.363       .  A
C541        N546   1.362       .  A
C541       C1732   1.487       .  S
N542        C543   1.359       .  A
C543        N544   1.351       .  A
C543       C1072   1.487       .  S
N544        C545   1.351       .  A
C545        N546   1.356       .  A
C545       C1033   1.477       .  S
C547        N548   1.376       .  A
C547        N552   1.364       .  A
C547       C1009   1.505       .  S
N548        C549   1.371       .  A
C549        N550   1.352       .  A
C549        C563   1.478       .  S
N550        C551   1.346       .  A
C551        N552   1.353       .  A
C551       C1024   1.480       .  S
C553        N554   1.354       .  A
C553        N558   1.359       .  A
C553       C1045   1.494       .  S
N554        C555   1.357       .  A
C555        N556   1.356       .  A
C555        C561   1.468   1_455  S
N556        C557   1.363       .  A
C557        N558   1.365       .  A
C557        C997   1.492       .  S
C559        N560   1.350       .  A
C559        N564   1.354       .  A
C559       C1576   1.485       .  S
N560        C561   1.357       .  A
C561        N562   1.369       .  A
N562        C563   1.366       .  A
C563        N564   1.363       .  A
O565       Ni573   1.908       .  S
O565        C575   1.281       .  A
O566       Ni573   1.910       .  S
O566        C576   1.280       .  A
O567       Ni573   1.914       .  S
O567        C577   1.281       .  A
O568       Ni573   1.912       .  S
O568        C578   1.281       .  A
O569       Ni574   1.930       .  S
O569        C578   1.283       .  A
O570       Ni574   1.932       .  S
O570        C577   1.284       .  A
O571       Ni574   1.937       .  S
O571        C576   1.285       .  A
O572       Ni574   1.940       .  S
O572        C575   1.285       .  A
Ni573      Ni574   2.381       .  S
C575       C1144   1.496       .  S
C576        C976   1.494       .  S
C577       C1192   1.494       .  S
C578        C985   1.489       .  S
O579       Ni587   1.942       .  S
O579        C589   1.286       .  A
O580       Ni587   1.940       .  S
O580        C590   1.286       .  A
O581       Ni587   1.936       .  S
O581        C591   1.284       .  A
O582       Ni587   1.936       .  S
O582        C592   1.284       .  A
O583       Ni588   1.916       .  S
O583        C592   1.282       .  A
O584       Ni588   1.917       .  S
O584        C591   1.282       .  A
O585       Ni588   1.916       .  S
O585        C590   1.282       .  A
O586       Ni588   1.913       .  S
O586        C589   1.281       .  A
Ni587      Ni588   2.380       .  S
C589       C1012   1.500       .  S
C590        C961   1.499       .  S
C591       C1168   1.498       .  S
C592        C952   1.494       .  S
C593        N594   1.369       .  A
C593        N598   1.367       .  A
C593        C973   1.496       .  S
N594        C595   1.363       .  A
C595        N596   1.352       .  A
C595        C609   1.470   1_455  S
N596        C597   1.349       .  A
C597        N598   1.357       .  A
C597        C937   1.479       .  S
C599        N600   1.370       .  A
C599        N604   1.368       .  A
C599        C964   1.502       .  S
N600        C601   1.362       .  A
C601        N602   1.354       .  A
C601        C607   1.471       .  S
N602        C603   1.350       .  A
C603        N604   1.359       .  A
C603        C925   1.489       .  S
C605        N606   1.352       .  A
C605        N610   1.354       .  A
C605       C1333   1.493       .  S
N606        C607   1.358       .  A
C607        N608   1.365       .  A
N608        C609   1.366       .  A
C609        N610   1.362       .  A
C611        N612   1.370       .  A
C611        N616   1.364       .  A
C611        C988   1.488       .  S
N612        C613   1.365       .  A
C613        N614   1.356       .  A
C613        C627   1.473       .  S
N614        C615   1.350       .  A
C615        N616   1.354       .  A
C615        C913   1.486       .  S
C617        N618   1.357       .  A
C617        N622   1.358       .  A
C617        C904   1.497       .  S
N618        C619   1.360       .  A
C619        N620   1.361       .  A
C619        C625   1.473       .  S
N620        C621   1.365       .  A
C621        N622   1.362       .  A
C621        C889   1.495       .  S
C623        N624   1.354       .  A
C623        N628   1.351       .  A
C623       C1228   1.485       .  S
N624        C625   1.360       .  A
C625        N626   1.369       .  A
N626        C627   1.366       .  A
C627        N628   1.356       .  A
C629        N630   1.361       .  A
C629        N634   1.364       .  A
C629       C1216   1.486       .  S
N630        C631   1.356       .  A
C631        N632   1.354   1_556  A
C631        C877   1.480   1_556  S
N632        C633   1.354   1_554  A
C633        N634   1.360       .  A
C633        C868   1.486   1_556  S
N635        C640   1.351       .  A
N635        C639   1.350       .  A
N635        H667   1.035       .  S
N636        C643   1.351       .  A
N636        C644   1.351       .  A
N637        C642   1.352       .  A
N637        C641   1.353       .  A
N637        H668   1.038       .  S
N638        C645   1.351       .  A
N638        C646   1.350       .  A
C639        C647   1.386       .  A
C639        C655   1.410       .  A
C640        C656   1.414       .  A
C640        C648   1.389       .  A
C641        C649   1.385       .  A
C641        C658   1.413       .  A
C642        C657   1.417       .  A
C642        C650   1.388       .  A
C643        C655   1.413       .  A
C643        C651   1.387       .  A
C644        C658   1.411       .  A
C644        C652   1.386       .  A
C645        C653   1.386       .  A
C645        C656   1.413       .  A
C646        C654   1.386       .  A
C646        C657   1.414       .  A
C647        C648   1.375       .  A
C647        H659   1.083       .  S
C648        H660   1.082       .  S
C649        C650   1.375       .  A
C649        H661   1.082       .  S
C650        H662   1.082       .  S
C651        C652   1.371       .  A
C651        H663   1.082       .  S
C652        H664   1.082       .  S
C653        C654   1.376       .  A
C653        H665   1.082       .  S
C654        H666   1.082       .  S
C655        C880   1.481       .  S
C656        C841   1.482       .  S
C657        C940   1.488       .  S
C658        C853   1.489       .  S
C669        N670   1.362       .  A
C669        N674   1.361       .  A
C669       C1300   1.486       .  S
N670        C671   1.358       .  A
C671        N672   1.356   1_556  A
C671        C829   1.485   1_556  S
N672        C673   1.356   1_554  A
C673        N674   1.358       .  A
C673        C817   1.489   1_556  S
N675        C680   1.354   1_565  A
N675        C679   1.354       .  A
N675        H707   1.033       .  S
N676        C683   1.352       .  A
N676        C684   1.351       .  A
N677        C682   1.352   1_565  A
N677        C681   1.353       .  A
N677        H708   1.036       .  S
N678        C685   1.353       .  A
N678        C686   1.354       .  A
C679        C687   1.386       .  A
C679        C695   1.418       .  A
C680        C696   1.422       .  A
C680        C688   1.390       .  A
C681        C689   1.386       .  A
C681        C698   1.413       .  A
C682        C697   1.416       .  A
C682        C690   1.388       .  A
C683        C695   1.415       .  A
C683        C691   1.387       .  A
C684        C698   1.411       .  A
C684        C692   1.385       .  A
C685        C693   1.387       .  A
C685        C696   1.420       .  A
C686        C694   1.385       .  A
C686        C697   1.417       .  A
C687        C688   1.375   1_565  A
C687        H699   1.083       .  S
C688        H700   1.082       .  S
C689        C690   1.374   1_565  A
C689        H701   1.082       .  S
C690        H702   1.082       .  S
C691        C692   1.372       .  A
C691        H703   1.082       .  S
C692        H704   1.082       .  S
C693        C694   1.377       .  A
C693        H705   1.082       .  S
C694        H706   1.082       .  S
C695        C865   1.490       .  S
C696        C901   1.491       .  S
C697        C928   1.491       .  S
C698        C820   1.484       .  S
N709        C714   1.355       .  A
N709        C713   1.354       .  A
N709        H741   1.039       .  S
N710        C717   1.352       .  A
N710        C718   1.351       .  A
N711        C716   1.353       .  A
N711        C715   1.352       .  A
N711        H742   1.036       .  S
N712        C719   1.350       .  A
N712        C720   1.352       .  A
C713        C721   1.388       .  A
C713        C729   1.417       .  A
C714        C730   1.416       .  A
C714        C722   1.387       .  A
C715        C723   1.387       .  A
C715        C732   1.414       .  A
C716        C731   1.415       .  A
C716        C724   1.387       .  A
C717        C729   1.412       .  A
C717        C725   1.385       .  A
C718        C732   1.416       .  A
C718        C726   1.388       .  A
C719        C727   1.385       .  A
C719        C730   1.411       .  A
C720        C728   1.387       .  A
C720        C731   1.414       .  A
C721        C722   1.374       .  A
C721        H733   1.082       .  S
C722        H734   1.082       .  S
C723        C724   1.379       .  A
C723        H735   1.082       .  S
C724        H736   1.082       .  S
C725        C726   1.372       .  A
C725        H737   1.082       .  S
C726        H738   1.082       .  S
C727        C728   1.372       .  A
C727        H739   1.082       .  S
C728        H740   1.082       .  S
C729        C832   1.488       .  S
C730        C808   1.487       .  S
C731        C916   1.485       .  S
C732        C796   1.482       .  S
C743        N744   1.364       .  A
C743        N748   1.361       .  A
C743       C1396   1.490       .  S
N744        C745   1.359       .  A
C745        N746   1.356   1_556  A
C745        C805   1.487   1_556  S
N746        C747   1.354   1_554  A
C747        N748   1.357       .  A
C747        C856   1.486   1_556  S
C749        N750   1.363       .  A
C749        N754   1.371       .  A
C749        C949   1.493       .  S
N750        C751   1.355       .  A
C751        N752   1.350       .  A
C751        C793   1.480       .  S
N752        C753   1.353       .  A
C753        N754   1.367       .  A
C753        C763   1.473       .  S
C755        N756   1.352       .  A
C755        N760   1.355       .  A
C755        C844   1.480       .  S
N756        C757   1.357   1_455  A
C757        N758   1.357   1_655  A
C757        C765   1.463       .  S
N758        C759   1.363       .  A
C759        N760   1.362       .  A
C759        C781   1.483       .  S
C761        N762   1.358       .  A
C761        N766   1.349       .  A
C761       C1264   1.494       .  S
N762        C763   1.365       .  A
C763        N764   1.364       .  A
N764        C765   1.363       .  A
C765        N766   1.353       .  A
O767       Ni775   1.909       .  S
O767        C777   1.280       .  A
O768       Ni775   1.908       .  S
O768        C778   1.280       .  A
O769       Ni775   1.910       .  S
O769        C779   1.281       .  A
O770       Ni775   1.909       .  S
O770        C780   1.279       .  A
O771       Ni776   1.926       .  S
O771        C780   1.284       .  A
O772       Ni776   1.930       .  S
O772        C779   1.283       .  A
O773       Ni776   1.919       .  S
O773        C778   1.282       .  A
O774       Ni776   1.922       .  S
O774        C777   1.282       .  A
Ni775      Ni776   2.383       .  S
C777       C1120   1.488       .  S
C778        C784   1.482       .  S
C779        C892   1.491       .  S
C780       C1000   1.488       .  S
C781        C782   1.405       .  A
C781        C786   1.412       .  A
C782        C783   1.395       .  A
C782        H787   1.083       .  S
C783        C784   1.411       .  A
C783        O788   1.372       .  S
C784        C785   1.405       .  A
C785        C786   1.400       .  A
C785        H789   1.083       .  S
C786        O790   1.371       .  S
O788        H792   0.992       .  S
O790        H791   0.992       .  S
C793        C794   1.405       .  A
C793        C798   1.413       .  A
C794        C795   1.402       .  A
C794        H799   1.083       .  S
C795        C796   1.407       .  A
C795        O800   1.371       .  S
C796        C797   1.398       .  A
C797        C798   1.397       .  A
C797        H801   1.084       .  S
C798        O802   1.372       .  S
O800        H804   0.992       .  S
O802        H803   0.992       .  S
C805        C806   1.407       .  A
C805        C810   1.415   1_554  A
C806        C807   1.393       .  A
C806        H811   1.083       .  S
C807        C808   1.404       .  A
C807        O812   1.372       .  S
C808        C809   1.403       .  A
C809        C810   1.405   1_554  A
C809        H813   1.083   1_554  S
C810        O814   1.371       .  S
O812        H816   0.992       .  S
O814        H815   0.992       .  S
C817        C818   1.408       .  A
C817        C822   1.416   1_554  A
C818        C819   1.395       .  A
C818        H823   1.083       .  S
C819        C820   1.403       .  A
C819        O824   1.372       .  S
C820        C821   1.401       .  A
C821        C822   1.403   1_554  A
C821        H825   1.084       .  S
C822        O826   1.371       .  S
O824        H828   0.992       .  S
O826        H827   0.992       .  S
C829        C830   1.406       .  A
C829        C834   1.414   1_554  A
C830        C831   1.394       .  A
C830        H835   1.083       .  S
C831        C832   1.405       .  A
C831        O836   1.372       .  S
C832        C833   1.404       .  A
C833        C834   1.404   1_554  A
C833        H837   1.084       .  S
C834        O838   1.371       .  S
O836        H840   0.992       .  S
O838        H839   0.992       .  S
C841        C842   1.402       .  A
C841        C846   1.404       .  A
C842        C843   1.400       .  A
C842        H847   1.084       .  S
C843        C844   1.411       .  A
C843        O848   1.372       .  S
C844        C845   1.407       .  A
C845        C846   1.400       .  A
C845        H849   1.084   1_455  S
C846        O850   1.371   1_455  S
O848        H852   0.992       .  S
O850        H851   0.992       .  S
C853        C854   1.400       .  A
C853        C858   1.408       .  A
C854        C855   1.396       .  A
C854        H859   1.084       .  S
C855        C856   1.414       .  A
C855        O860   1.372       .  S
C856        C857   1.408   1_554  A
C857        C858   1.402   1_556  A
C857        H861   1.083       .  S
C858        O862   1.371   1_554  S
O860        H864   0.992       .  S
O862        H863   0.991       .  S
C865        C866   1.400       .  A
C865        C870   1.409       .  A
C866        C867   1.396       .  A
C866        H871   1.084       .  S
C867        C868   1.414       .  A
C867        O872   1.372       .  S
C868        C869   1.407   1_554  A
C869        C870   1.406   1_556  A
C869        H873   1.083       .  S
C870        O874   1.372   1_554  S
O872        H876   0.992       .  S
O874        H875   0.992       .  S
C877        C878   1.405       .  A
C877        C882   1.413   1_554  A
C878        C879   1.392       .  A
C878        H883   1.083       .  S
C879        C880   1.404       .  A
C879        O884   1.372       .  S
C880        C881   1.402       .  A
C881        C882   1.403   1_554  A
C881        H885   1.083   1_554  S
C882        O886   1.371       .  S
O884        H888   0.992       .  S
O886        H887   0.992       .  S
C889        C890   1.409       .  A
C889        C894   1.414       .  A
C890        C891   1.407       .  A
C890        H895   1.083       .  S
C891        C892   1.412   1_545  A
C891        O896   1.371       .  S
C892        C893   1.404       .  A
C893        C894   1.398   1_565  A
C893        H897   1.083       .  S
C894        O898   1.372       .  S
O896        H900   0.992       .  S
O898        H899   0.992   1_545  S
C901        C902   1.400       .  A
C901        C906   1.406       .  A
C902        C903   1.401       .  A
C902        H907   1.084   1_545  S
C903        C904   1.416       .  A
C903        O908   1.370   1_545  S
C904        C905   1.411       .  A
C905        C906   1.404       .  A
C905        H909   1.083       .  S
C906        O910   1.371       .  S
O908        H912   0.992       .  S
O910        H911   0.992       .  S
C913        C914   1.408       .  A
C913        C918   1.413       .  A
C914        C915   1.398       .  A
C914        H919   1.083       .  S
C915        C916   1.403       .  A
C915        O920   1.371       .  S
C916        C917   1.403       .  A
C917        C918   1.404       .  A
C917        H921   1.083       .  S
C918        O922   1.371       .  S
O920        H924   0.992       .  S
O922        H923   0.992       .  S
C925        C926   1.405       .  A
C925        C930   1.416       .  A
C926        C927   1.405       .  A
C926        H931   1.083   1_545  S
C927        C928   1.410       .  A
C927        O932   1.372   1_545  S
C928        C929   1.399       .  A
C929        C930   1.400       .  A
C929        H933   1.084       .  S
C930        O934   1.371       .  S
O932        H936   0.992       .  S
O934        H935   0.992       .  S
C937        C938   1.403       .  A
C937        C942   1.412       .  A
C938        C939   1.402       .  A
C938        H943   1.083       .  S
C939        C940   1.411       .  A
C939        O944   1.372       .  S
C940        C941   1.400       .  A
C941        C942   1.398       .  A
C941        H945   1.084       .  S
C942        O946   1.373   1_455  S
O944        H948   0.992       .  S
O946        H947   0.992       .  S
C949        C950   1.408       .  A
C949        C954   1.413       .  A
C950        C951   1.411       .  A
C950        H955   1.083       .  S
C951        C952   1.414       .  A
C951        O956   1.371       .  S
C952        C953   1.405       .  A
C953        C954   1.397       .  A
C953        H957   1.084       .  S
C954        O958   1.372       .  S
O956        H960   0.992       .  S
O958        H959   0.992       .  S
C961        C962   1.407       .  A
C961        C966   1.413   1_565  A
C962        C963   1.401       .  A
C962        H967   1.083       .  S
C963        C964   1.416   1_565  A
C963        O968   1.372       .  S
C964        C965   1.410       .  A
C965        C966   1.409       .  A
C965        H969   1.083       .  S
C966        O970   1.371       .  S
O968        H972   0.992       .  S
O970        H971   0.992       .  S
C973        C974   1.406       .  A
C973        C978   1.414       .  A
C974        C975   1.399       .  A
C974        H979   1.083       .  S
C975        C976   1.414       .  A
C975        O980   1.372       .  S
C976        C977   1.407       .  A
C977        C978   1.408       .  A
C977        H981   1.083       .  S
C978        O982   1.371       .  S
O980        H984   0.992       .  S
O982        H983   0.992       .  S
C985        C986   1.404       .  A
C985        C990   1.414       .  A
C986        C987   1.396       .  A
C986        H991   1.084       .  S
C987        C988   1.412       .  A
C987        O992   1.372       .  S
C988        C989   1.407       .  A
C989        C990   1.409       .  A
C989        H993   1.083       .  S
C990        O994   1.371       .  S
O992        H996   0.992       .  S
O994        H995   0.992       .  S
C997        C998   1.406       .  A
C997       C1002   1.415       .  A
C998        C999   1.398       .  A
C998       H1003   1.083       .  S
C999       C1000   1.413       .  A
C999       O1004   1.372       .  S
C1000      C1001   1.405       .  A
C1001      C1002   1.402       .  A
C1001      H1005   1.083       .  S
C1002      O1006   1.371       .  S
O1004      H1008   0.992       .  S
O1006      H1007   0.992       .  S
C1009      C1010   1.410       .  A
C1009      C1014   1.414       .  A
C1010      C1011   1.397       .  A
C1010      H1015   1.083       .  S
C1011      C1012   1.412       .  A
C1011      O1016   1.372       .  S
C1012      C1013   1.411       .  A
C1013      C1014   1.415       .  A
C1013      H1017   1.083       .  S
C1014      O1018   1.371       .  S
O1016      H1020   0.992       .  S
O1018      H1019   0.992       .  S
C1021      C1022   1.399       .  A
C1021      C1026   1.407       .  A
C1022      C1023   1.398       .  A
C1022      H1027   1.084       .  S
C1023      C1024   1.414       .  A
C1023      O1028   1.372       .  S
C1024      C1025   1.404       .  A
C1025      C1026   1.400       .  A
C1025      H1029   1.083       .  S
C1026      O1030   1.372       .  S
O1028      H1032   0.992       .  S
O1030      H1031   0.992       .  S
C1033      C1034   1.405       .  A
C1033      C1038   1.411       .  A
C1034      C1035   1.392       .  A
C1034      H1039   1.083       .  S
C1035      C1036   1.404       .  A
C1035      O1040   1.373       .  S
C1036      C1037   1.404       .  A
C1037      C1038   1.403       .  A
C1037      H1041   1.083       .  S
C1038      O1042   1.371       .  S
O1040      H1044   0.992       .  S
O1042      H1043   0.992       .  S
C1045      C1046   1.408       .  A
C1045      C1050   1.417       .  A
C1046      C1047   1.403       .  A
C1046      H1051   1.083       .  S
C1047      C1048   1.406       .  A
C1047      O1052   1.371       .  S
C1048      C1049   1.400       .  A
C1049      C1050   1.402       .  A
C1049      H1053   1.084       .  S
C1050      O1054   1.372   1_455  S
O1052      H1056   0.992       .  S
O1054      H1055   0.992       .  S
C1057      C1058   1.403       .  A
C1057      C1062   1.401       .  A
C1058      C1059   1.405       .  A
C1058      H1063   1.083       .  S
C1059      C1060   1.414       .  A
C1059      O1064   1.370       .  S
C1060      C1061   1.409       .  A
C1061      C1062   1.391       .  A
C1061      H1065   1.083       .  S
C1062      O1066   1.372       .  S
O1064      H1068   0.992       .  S
O1066      H1067   0.992       .  S
C1069      C1070   1.395       .  A
C1069      C1074   1.404       .  A
C1070      C1071   1.392       .  A
C1070      H1075   1.084       .  S
C1071      C1072   1.418       .  A
C1071      O1076   1.372       .  S
C1072      C1073   1.410       .  A
C1073      C1074   1.403       .  A
C1073      H1077   1.083       .  S
C1074      O1078   1.371       .  S
O1076      H1080   0.992       .  S
O1078      H1079   0.992       .  S
C1081      C1082   1.407       .  A
C1081      C1086   1.414       .  A
C1082      C1083   1.396       .  A
C1082      H1087   1.083       .  S
C1083      C1084   1.404       .  A
C1083      O1088   1.372       .  S
C1084      C1085   1.400       .  A
C1085      C1086   1.401       .  A
C1085      H1089   1.084       .  S
C1086      O1090   1.371       .  S
O1088      H1092   0.992       .  S
O1090      H1091   0.992       .  S
C1093      C1094   1.411       .  A
C1093      C1098   1.417       .  A
C1094      C1095   1.403       .  A
C1094      H1099   1.083       .  S
C1095      C1096   1.404       .  A
C1095      O1100   1.371       .  S
C1096      C1097   1.397       .  A
C1097      C1098   1.396       .  A
C1097      H1101   1.084       .  S
C1098      O1102   1.371       .  S
O1100      H1104   0.992       .  S
O1102      H1103   0.992       .  S
C1105      C1106   1.405       .  A
C1105      C1110   1.402       .  A
C1106      C1107   1.407       .  A
C1106      H1111   1.083       .  S
C1107      C1108   1.413       .  A
C1107      O1112   1.371       .  S
C1108      C1109   1.408       .  A
C1109      C1110   1.390       .  A
C1109      H1113   1.083       .  S
C1110      O1114   1.373       .  S
O1112      H1116   0.992       .  S
O1114      H1115   0.992       .  S
C1117      C1118   1.407       .  A
C1117      C1122   1.413       .  A
C1118      C1119   1.395   1_545  A
C1118      H1123   1.083       .  S
C1119      C1120   1.412       .  A
C1119      O1124   1.372       .  S
C1120      C1121   1.407   1_565  A
C1121      C1122   1.404       .  A
C1121      H1125   1.083       .  S
C1122      O1126   1.371       .  S
O1124      H1128   0.992       .  S
O1126      H1127   0.992       .  S
C1129      C1130   1.400       .  A
C1129      C1134   1.406       .  A
C1130      C1131   1.401       .  A
C1130      H1135   1.084       .  S
C1131      C1132   1.413       .  A
C1131      O1136   1.372       .  S
C1132      C1133   1.406       .  A
C1133      C1134   1.400       .  A
C1133      H1137   1.083   1_545  S
C1134      O1138   1.371   1_545  S
O1136      H1140   0.991       .  S
O1138      H1139   0.992       .  S
C1141      C1142   1.410       .  A
C1141      C1146   1.416       .  A
C1142      C1143   1.411       .  A
C1142      H1147   1.083       .  S
C1143      C1144   1.414       .  A
C1143      O1148   1.371       .  S
C1144      C1145   1.405       .  A
C1145      C1146   1.395       .  A
C1145      H1149   1.083       .  S
C1146      O1150   1.372       .  S
O1148      H1152   0.992       .  S
O1150      H1151   0.992       .  S
C1153      C1154   1.408       .  A
C1153      C1158   1.412       .  A
C1154      C1155   1.397       .  A
C1154      H1159   1.083       .  S
C1155      C1156   1.402       .  A
C1155      O1160   1.371       .  S
C1156      C1157   1.402       .  A
C1157      C1158   1.400       .  A
C1157      H1161   1.084       .  S
C1158      O1162   1.371       .  S
O1160      H1164   0.992       .  S
O1162      H1163   0.992       .  S
C1165      C1166   1.409       .  A
C1165      C1170   1.417   1_545  A
C1166      C1167   1.410       .  A
C1166      H1171   1.083       .  S
C1167      C1168   1.414   1_545  A
C1167      O1172   1.371       .  S
C1168      C1169   1.405       .  A
C1169      C1170   1.399       .  A
C1169      H1173   1.083       .  S
C1170      O1174   1.372       .  S
O1172      H1176   0.992       .  S
O1174      H1175   0.992       .  S
C1177      C1178   1.399       .  A
C1177      C1182   1.408       .  A
C1178      C1179   1.398       .  A
C1178      H1183   1.084       .  S
C1179      C1180   1.414       .  A
C1179      O1184   1.372       .  S
C1180      C1181   1.405       .  A
C1181      C1182   1.402       .  A
C1181      H1185   1.083   1_545  S
C1182      O1186   1.372   1_545  S
O1184      H1188   0.992       .  S
O1186      H1187   0.992       .  S
C1189      C1190   1.407       .  A
C1189      C1194   1.415       .  A
C1190      C1191   1.399       .  A
C1190      H1195   1.083       .  S
C1191      C1192   1.413       .  A
C1191      O1196   1.372       .  S
C1192      C1193   1.408       .  A
C1193      C1194   1.406       .  A
C1193      H1197   1.083       .  S
C1194      O1198   1.371       .  S
O1196      H1200   0.992       .  S
O1198      H1199   0.992       .  S
C1201      C1202   1.406       .  A
C1201      C1206   1.415       .  A
C1202      C1203   1.403       .  A
C1202      H1207   1.083       .  S
C1203      C1204   1.409       .  A
C1203      O1208   1.371       .  S
C1204      C1205   1.398       .  A
C1205      C1206   1.399       .  A
C1205      H1209   1.084       .  S
C1206      O1210   1.372       .  S
O1208      H1212   0.992       .  S
O1210      H1211   0.992   1_455  S
C1213      C1214   1.406       .  A
C1213      C1218   1.414       .  A
C1214      C1215   1.400       .  A
C1214      H1219   1.083       .  S
C1215      C1216   1.411       .  A
C1215      O1220   1.371       .  S
C1216      C1217   1.406       .  A
C1217      C1218   1.399       .  A
C1217      H1221   1.083       .  S
C1218      O1222   1.372       .  S
O1220      H1224   0.992       .  S
O1222      H1223   0.992       .  S
C1225      C1226   1.408       .  A
C1225      C1230   1.411       .  A
C1226      C1227   1.402       .  A
C1226      H1231   1.083       .  S
C1227      C1228   1.409       .  A
C1227      O1232   1.372       .  S
C1228      C1229   1.406       .  A
C1229      C1230   1.398       .  A
C1229      H1233   1.084       .  S
C1230      O1234   1.371       .  S
O1232      H1236   0.992       .  S
O1234      H1235   0.992       .  S
C1237      C1238   1.403       .  A
C1237      C1242   1.405       .  A
C1238      C1239   1.404       .  A
C1238      H1243   1.083       .  S
C1239      C1240   1.412       .  A
C1239      O1244   1.371   1_556  S
C1240      C1241   1.408       .  A
C1241      C1242   1.395       .  A
C1241      H1245   1.084       .  S
C1242      O1246   1.372       .  S
O1244      H1248   0.992       .  S
O1246      H1247   0.992       .  S
C1249      C1250   1.409       .  A
C1249      C1254   1.414       .  A
C1250      C1251   1.402       .  A
C1250      H1255   1.083   1_556  S
C1251      C1252   1.405       .  A
C1251      O1256   1.372       .  S
C1252      C1253   1.400       .  A
C1253      C1254   1.396       .  A
C1253      H1257   1.084       .  S
C1254      O1258   1.371       .  S
O1256      H1260   0.992   1_556  S
O1258      H1259   0.992       .  S
C1261      C1262   1.404       .  A
C1261      C1266   1.417       .  A
C1262      C1263   1.398       .  A
C1262      H1267   1.083       .  S
C1263      C1264   1.417       .  A
C1263      O1268   1.372       .  S
C1264      C1265   1.406       .  A
C1265      C1266   1.404       .  A
C1265      H1269   1.083       .  S
C1266      O1270   1.371       .  S
O1268      H1272   0.992       .  S
O1270      H1271   0.992       .  S
C1273      C1274   1.403       .  A
C1273      C1278   1.400       .  A
C1274      C1275   1.403       .  A
C1274      H1279   1.083       .  S
C1275      C1276   1.411       .  A
C1275      O1280   1.371       .  S
C1276      C1277   1.409       .  A
C1277      C1278   1.392       .  A
C1277      H1281   1.083       .  S
C1278      O1282   1.372       .  S
O1280      H1284   0.992       .  S
O1282      H1283   0.992       .  S
C1285      C1286   1.408       .  A
C1285      C1290   1.416       .  A
C1286      C1287   1.398       .  A
C1286      H1291   1.083       .  S
C1287      C1288   1.408       .  A
C1287      O1292   1.372       .  S
C1288      C1289   1.404       .  A
C1289      C1290   1.406       .  A
C1289      H1293   1.083   1_655  S
C1290      O1294   1.371   1_556  S
O1292      H1296   0.992       .  S
O1294      H1295   0.992       .  S
C1297      C1298   1.406       .  A
C1297      C1302   1.414       .  A
C1298      C1299   1.399       .  A
C1298      H1303   1.083       .  S
C1299      C1300   1.412       .  A
C1299      O1304   1.371       .  S
C1300      C1301   1.405       .  A
C1301      C1302   1.399       .  A
C1301      H1305   1.083       .  S
C1302      O1306   1.372       .  S
O1304      H1308   0.992       .  S
O1306      H1307   0.992       .  S
C1309      C1310   1.403       .  A
C1309      C1314   1.414       .  A
C1310      C1311   1.398       .  A
C1310      H1315   1.083       .  S
C1311      C1312   1.407       .  A
C1311      O1316   1.371       .  S
C1312      C1313   1.400       .  A
C1313      C1314   1.400       .  A
C1313      H1317   1.084       .  S
C1314      O1318   1.372       .  S
O1316      H1320   0.992       .  S
O1318      H1319   0.992       .  S
C1321      C1322   1.400       .  A
C1321      C1326   1.407   1_655  A
C1322      C1323   1.395       .  A
C1322      H1327   1.084       .  S
C1323      C1324   1.412       .  A
C1323      O1328   1.373       .  S
C1324      C1325   1.407       .  A
C1325      C1326   1.404   1_655  A
C1325      H1329   1.083   1_556  S
C1326      O1330   1.371       .  S
O1328      H1332   0.992       .  S
O1330      H1331   0.992       .  S
C1333      C1334   1.407       .  A
C1333      C1338   1.414       .  A
C1334      C1335   1.404       .  A
C1334      H1339   1.083       .  S
C1335      C1336   1.415       .  A
C1335      O1340   1.372       .  S
C1336      C1337   1.406       .  A
C1337      C1338   1.400       .  A
C1337      H1341   1.083       .  S
C1338      O1342   1.372       .  S
O1340      H1344   0.992       .  S
O1342      H1343   0.992       .  S
C1345      C1346   1.404       .  A
C1345      C1350   1.402   1_545  A
C1346      C1347   1.407       .  A
C1346      H1351   1.083       .  S
C1347      C1348   1.415       .  A
C1347      O1352   1.371       .  S
C1348      C1349   1.411   1_545  A
C1349      C1350   1.396       .  A
C1349      H1353   1.083       .  S
C1350      O1354   1.372       .  S
O1352      H1356   0.992       .  S
O1354      H1355   0.992       .  S
C1357      C1358   1.402       .  A
C1357      C1362   1.402       .  A
C1358      C1359   1.404       .  A
C1358      H1363   1.083       .  S
C1359      C1360   1.415       .  A
C1359      O1364   1.371   1_556  S
C1360      C1361   1.409       .  A
C1361      C1362   1.393       .  A
C1361      H1365   1.083       .  S
C1362      O1366   1.373       .  S
O1364      H1368   0.992       .  S
O1366      H1367   0.992       .  S
C1369      C1370   1.399   1_545  A
C1369      C1374   1.406       .  A
C1370      C1371   1.399       .  A
C1370      H1375   1.084       .  S
C1371      C1372   1.420   1_565  A
C1371      O1376   1.372       .  S
C1372      C1373   1.410       .  A
C1373      C1374   1.405       .  A
C1373      H1377   1.083       .  S
C1374      O1378   1.371       .  S
O1376      H1380   0.992       .  S
O1378      H1379   0.992       .  S
C1381      C1382   1.400       .  A
C1381      C1386   1.407       .  A
C1382      C1383   1.395       .  A
C1382      H1387   1.084       .  S
C1383      C1384   1.413       .  A
C1383      O1388   1.372       .  S
C1384      C1385   1.407       .  A
C1385      C1386   1.406       .  A
C1385      H1389   1.083   1_556  S
C1386      O1390   1.371       .  S
O1388      H1392   0.992       .  S
O1390      H1391   0.992       .  S
C1393      C1394   1.406       .  A
C1393      C1398   1.414       .  A
C1394      C1395   1.399       .  A
C1394      H1399   1.083       .  S
C1395      C1396   1.414       .  A
C1395      O1400   1.372       .  S
C1396      C1397   1.406       .  A
C1397      C1398   1.400       .  A
C1397      H1401   1.083       .  S
C1398      O1402   1.372       .  S
O1400      H1404   0.992       .  S
O1402      H1403   0.992       .  S
C1405      C1406   1.402       .  A
C1405      C1410   1.405       .  A
C1406      C1407   1.400       .  A
C1406      H1411   1.084       .  S
C1407      C1408   1.409       .  A
C1407      O1412   1.372       .  S
C1408      C1409   1.406       .  A
C1409      C1410   1.401       .  A
C1409      H1413   1.084       .  S
C1410      O1414   1.371       .  S
O1412      H1416   0.992       .  S
O1414      H1415   0.992       .  S
C1417      C1418   1.396       .  A
C1417      C1422   1.406       .  A
C1418      C1419   1.394       .  A
C1418      H1423   1.084       .  S
C1419      C1420   1.416       .  A
C1419      O1424   1.372       .  S
C1420      C1421   1.405       .  A
C1421      C1422   1.400       .  A
C1421      H1425   1.083       .  S
C1422      O1426   1.371       .  S
O1424      H1428   0.992       .  S
O1426      H1427   0.992       .  S
C1429      C1430   1.406       .  A
C1429      C1434   1.414       .  A
C1430      C1431   1.404       .  A
C1430      H1435   1.083       .  S
C1431      C1432   1.415       .  A
C1431      O1436   1.371   1_545  S
C1432      C1433   1.406       .  A
C1433      C1434   1.399       .  A
C1433      H1437   1.083       .  S
C1434      O1438   1.372       .  S
O1436      H1440   0.992       .  S
O1438      H1439   0.992       .  S
C1441      C1442   1.407       .  A
C1441      C1446   1.412       .  A
C1442      C1443   1.408       .  A
C1442      H1447   1.083       .  S
C1443      C1444   1.413       .  A
C1443      O1448   1.371       .  S
C1444      C1445   1.403       .  A
C1445      C1446   1.395       .  A
C1445      H1449   1.084       .  S
C1446      O1450   1.373       .  S
O1448      H1452   0.992       .  S
O1450      H1451   0.992       .  S
C1453      C1454   1.405       .  A
C1453      C1458   1.409       .  A
C1454      C1455   1.397       .  A
C1454      H1459   1.083       .  S
C1455      C1456   1.413       .  A
C1455      O1460   1.371       .  S
C1456      C1457   1.409       .  A
C1457      C1458   1.400       .  A
C1457      H1461   1.083   1_545  S
C1458      O1462   1.372       .  S
O1460      H1464   0.992       .  S
O1462      H1463   0.992       .  S
C1465      C1466   1.405       .  A
C1465      C1470   1.413       .  A
C1466      C1467   1.402       .  A
C1466      H1471   1.083       .  S
C1467      C1468   1.415       .  A
C1467      O1472   1.372       .  S
C1468      C1469   1.405       .  A
C1469      C1470   1.395       .  A
C1469      H1473   1.083       .  S
C1470      O1474   1.372       .  S
O1472      H1476   0.992       .  S
O1474      H1475   0.992       .  S
C1477      C1478   1.403       .  A
C1477      C1482   1.414       .  A
C1478      C1479   1.397       .  A
C1478      H1483   1.084       .  S
C1479      C1480   1.415       .  A
C1479      O1484   1.372       .  S
C1480      C1481   1.408       .  A
C1481      C1482   1.409       .  A
C1481      H1485   1.083       .  S
C1482      O1486   1.371       .  S
O1484      H1488   0.992       .  S
O1486      H1487   0.992       .  S
C1489      C1490   1.406       .  A
C1489      C1494   1.413       .  A
C1490      C1491   1.405       .  A
C1490      H1495   1.083       .  S
C1491      C1492   1.415       .  A
C1491      O1496   1.371       .  S
C1492      C1493   1.406       .  A
C1493      C1494   1.397       .  A
C1493      H1497   1.083       .  S
C1494      O1498   1.372       .  S
O1496      H1500   0.992       .  S
O1498      H1499   0.992       .  S
C1501      C1502   1.405       .  A
C1501      C1506   1.414       .  A
C1502      C1503   1.399       .  A
C1502      H1507   1.083       .  S
C1503      C1504   1.415       .  A
C1503      O1508   1.372       .  S
C1504      C1505   1.405       .  A
C1505      C1506   1.399       .  A
C1505      H1509   1.083       .  S
C1506      O1510   1.372       .  S
O1508      H1512   0.992       .  S
O1510      H1511   0.992       .  S
C1513      C1514   1.404       .  A
C1513      C1518   1.412       .  A
C1514      C1515   1.394       .  A
C1514      H1519   1.084       .  S
C1515      C1516   1.413       .  A
C1515      O1520   1.372       .  S
C1516      C1517   1.409       .  A
C1517      C1518   1.409       .  A
C1517      H1521   1.083       .  S
C1518      O1522   1.371       .  S
O1520      H1524   0.992       .  S
O1522      H1523   0.992       .  S
C1525      C1526   1.403       .  A
C1525      C1530   1.414       .  A
C1526      C1527   1.395       .  A
C1526      H1531   1.084       .  S
C1527      C1528   1.411       .  A
C1527      O1532   1.372       .  S
C1528      C1529   1.404       .  A
C1529      C1530   1.403       .  A
C1529      H1533   1.083       .  S
C1530      O1534   1.372       .  S
O1532      H1536   0.992       .  S
O1534      H1535   0.992       .  S
C1537      C1538   1.408       .  A
C1537      C1542   1.412       .  A
C1538      C1539   1.404       .  A
C1538      H1543   1.083       .  S
C1539      C1540   1.408       .  A
C1539      O1544   1.371   1_655  S
C1540      C1541   1.399       .  A
C1541      C1542   1.396       .  A
C1541      H1545   1.084       .  S
C1542      O1546   1.372       .  S
O1544      H1548   0.992       .  S
O1546      H1547   0.992       .  S
C1549      C1550   1.406       .  A
C1549      C1554   1.415       .  A
C1550      C1551   1.400       .  A
C1550      H1555   1.083       .  S
C1551      C1552   1.415       .  A
C1551      O1556   1.372       .  S
C1552      C1553   1.408       .  A
C1553      C1554   1.405       .  A
C1553      H1557   1.083       .  S
C1554      O1558   1.371       .  S
O1556      H1560   0.992   1_655  S
O1558      H1559   0.992       .  S
C1561      C1562   1.397       .  A
C1561      C1566   1.405       .  A
C1562      C1563   1.397       .  A
C1562      H1567   1.084       .  S
C1563      C1564   1.420       .  A
C1563      O1568   1.372       .  S
C1564      C1565   1.410       .  A
C1565      C1566   1.405       .  A
C1565      H1569   1.083       .  S
C1566      O1570   1.371   1_655  S
O1568      H1572   0.992       .  S
O1570      H1571   0.992       .  S
C1573      C1574   1.405       .  A
C1573      C1578   1.412       .  A
C1574      C1575   1.403       .  A
C1574      H1579   1.083       .  S
C1575      C1576   1.411       .  A
C1575      O1580   1.372       .  S
C1576      C1577   1.404       .  A
C1577      C1578   1.401       .  A
C1577      H1581   1.084       .  S
C1578      O1582   1.372       .  S
O1580      H1584   0.992   1_655  S
O1582      H1583   0.992       .  S
C1585      C1586   1.398       .  A
C1585      C1590   1.406       .  A
C1586      C1587   1.397       .  A
C1586      H1591   1.084       .  S
C1587      C1588   1.414       .  A
C1587      O1592   1.372       .  S
C1588      C1589   1.405       .  A
C1589      C1590   1.400       .  A
C1589      H1593   1.083       .  S
C1590      O1594   1.372       .  S
O1592      H1596   0.992       .  S
O1594      H1595   0.992       .  S
C1597      C1598   1.406       .  A
C1597      C1602   1.413       .  A
C1598      C1599   1.395       .  A
C1598      H1603   1.083       .  S
C1599      C1600   1.405       .  A
C1599      O1604   1.372       .  S
C1600      C1601   1.403       .  A
C1601      C1602   1.403       .  A
C1601      H1605   1.084       .  S
C1602      O1606   1.371       .  S
O1604      H1608   0.992       .  S
O1606      H1607   0.992       .  S
C1609      C1610   1.408       .  A
C1609      C1614   1.414       .  A
C1610      C1611   1.404       .  A
C1610      H1615   1.083       .  S
C1611      C1612   1.407       .  A
C1611      O1616   1.372       .  S
C1612      C1613   1.399       .  A
C1613      C1614   1.394       .  A
C1613      H1617   1.084       .  S
C1614      O1618   1.371       .  S
O1616      H1620   0.992       .  S
O1618      H1619   0.992       .  S
C1621      C1622   1.406       .  A
C1621      C1626   1.415       .  A
C1622      C1623   1.401       .  A
C1622      H1627   1.083       .  S
C1623      C1624   1.416       .  A
C1623      O1628   1.371       .  S
C1624      C1625   1.406       .  A
C1625      C1626   1.402       .  A
C1625      H1629   1.083       .  S
C1626      O1630   1.371       .  S
O1628      H1632   0.992       .  S
O1630      H1631   0.991       .  S
C1633      C1634   1.410       .  A
C1633      C1638   1.414   1_565  A
C1634      C1635   1.399       .  A
C1634      H1639   1.083       .  S
C1635      C1636   1.405   1_565  A
C1635      O1640   1.371       .  S
C1636      C1637   1.402       .  A
C1637      C1638   1.403       .  A
C1637      H1641   1.084       .  S
C1638      O1642   1.371       .  S
O1640      H1644   0.992       .  S
O1642      H1643   0.992       .  S
C1645      C1646   1.398       .  A
C1645      C1650   1.407       .  A
C1646      C1647   1.393       .  A
C1646      H1651   1.084       .  S
C1647      C1648   1.414       .  A
C1647      O1652   1.370       .  S
C1648      C1649   1.409       .  A
C1649      C1650   1.407       .  A
C1649      H1653   1.083       .  S
C1650      O1654   1.372       .  S
O1652      H1656   0.992       .  S
O1654      H1655   0.992       .  S
C1657      C1658   1.409       .  A
C1657      C1662   1.414       .  A
C1658      C1659   1.395       .  A
C1658      H1663   1.083       .  S
C1659      C1660   1.404       .  A
C1659      O1664   1.373       .  S
C1660      C1661   1.404       .  A
C1661      C1662   1.406       .  A
C1661      H1665   1.083       .  S
C1662      O1666   1.371       .  S
O1664      H1668   0.992       .  S
O1666      H1667   0.992       .  S
C1669      C1670   1.405       .  A
C1669      C1674   1.415       .  A
C1670      C1671   1.399       .  A
C1670      H1675   1.083       .  S
C1671      C1672   1.415       .  A
C1671      O1676   1.371       .  S
C1672      C1673   1.407       .  A
C1673      C1674   1.402       .  A
C1673      H1677   1.083       .  S
C1674      O1678   1.372       .  S
O1676      H1680   0.992       .  S
O1678      H1679   0.992       .  S
C1681      C1682   1.407       .  A
C1681      C1686   1.413       .  A
C1682      C1683   1.405       .  A
C1682      H1687   1.083       .  S
C1683      C1684   1.411       .  A
C1683      O1688   1.371       .  S
C1684      C1685   1.405       .  A
C1685      C1686   1.399       .  A
C1685      H1689   1.084       .  S
C1686      O1690   1.372       .  S
O1688      H1692   0.992       .  S
O1690      H1691   0.992       .  S
C1693      C1694   1.405       .  A
C1693      C1698   1.415   1_545  A
C1694      C1695   1.402       .  A
C1694      H1699   1.083       .  S
C1695      C1696   1.408       .  A
C1695      O1700   1.371       .  S
C1696      C1697   1.398   1_545  A
C1697      C1698   1.397       .  A
C1697      H1701   1.084       .  S
C1698      O1702   1.372       .  S
O1700      H1704   0.992       .  S
O1702      H1703   0.992       .  S
C1705      C1706   1.408       .  A
C1705      C1710   1.416       .  A
C1706      C1707   1.405       .  A
C1706      H1711   1.083       .  S
C1707      C1708   1.413       .  A
C1707      O1712   1.371       .  S
C1708      C1709   1.404       .  A
C1709      C1710   1.400       .  A
C1709      H1713   1.083   1_455  S
C1710      O1714   1.372       .  S
O1712      H1716   0.992       .  S
O1714      H1715   0.992       .  S
C1717      C1718   1.405       .  A
C1717      C1722   1.415       .  A
C1718      C1719   1.403       .  A
C1718      H1723   1.083       .  S
C1719      C1720   1.408       .  A
C1719      O1724   1.372       .  S
C1720      C1721   1.399       .  A
C1721      C1722   1.399       .  A
C1721      H1725   1.084       .  S
C1722      O1726   1.372       .  S
O1724      H1728   0.992       .  S
O1726      H1727   0.992       .  S
C1729      C1730   1.406       .  A
C1729      C1734   1.412       .  A
C1730      C1731   1.397       .  A
C1730      H1735   1.083       .  S
C1731      C1732   1.412       .  A
C1731      O1736   1.371       .  S
C1732      C1733   1.407       .  A
C1733      C1734   1.398       .  A
C1733      H1737   1.083       .  S
C1734      O1738   1.372       .  S
O1736      H1740   0.992       .  S
O1738      H1739   0.992       .  S
C1741      C1742   1.404       .  A
C1741      C1746   1.408       .  A
C1742      C1743   1.395       .  A
C1742      H1747   1.084       .  S
C1743      C1744   1.408       .  A
C1743      O1748   1.372       .  S
C1744      C1745   1.407       .  A
C1745      C1746   1.401       .  A
C1745      H1749   1.083       .  S
C1746      O1750   1.372       .  S
O1748      H1752   0.992       .  S
O1750      H1751   0.992       .  S
C1753      C1754   1.407       .  A
C1753      C1758   1.415       .  A
C1754      C1755   1.400       .  A
C1754      H1759   1.083       .  S
C1755      C1756   1.405       .  A
C1755      O1760   1.371       .  S
C1756      C1757   1.401       .  A
C1757      C1758   1.402       .  A
C1757      H1761   1.084       .  S
C1758      O1762   1.372       .  S
O1760      H1764   0.992       .  S
O1762      H1763   0.992       .  S
C1765      C1766   1.404       .  A
C1765      C1770   1.411       .  A
C1766      C1767   1.396       .  A
C1766      H1771   1.084       .  S
C1767      C1768   1.409       .  A
C1767      O1772   1.373       .  S
C1768      C1769   1.407       .  A
C1769      C1770   1.408       .  A
C1769      H1773   1.083       .  S
C1770      O1774   1.371       .  S
O1772      H1776   0.992       .  S
O1774      H1775   0.992       .  S
C1777      C1778   1.406       .  A
C1777      C1782   1.415       .  A
C1778      C1779   1.403       .  A
C1778      H1783   1.083       .  S
C1779      C1780   1.407       .  A
C1779      O1784   1.371       .  S
C1780      C1781   1.396       .  A
C1781      C1782   1.396       .  A
C1781      H1785   1.084       .  S
C1782      O1786   1.373       .  S
O1784      H1788   0.992       .  S
O1786      H1787   0.992       .  S
