geometry optimzed in LAMMPS
_audit_creation_date              2020-11-30 
_audit_creation_method            'lammps2cif' 
_symmetry_space_group_name_H-M    'P1' 
_symmetry_Int_Tables_number       1 
_symmetry_cell_setting            triclinic 
loop_ 
_symmetry_equiv_pos_as_xyz 
  x,y,z 
_cell_length_a                    30.55815377 
_cell_length_b                    38.58616956899538 
_cell_length_c                    47.38173620402075 
_cell_angle_alpha                 89.93654267744972 
_cell_angle_beta                  110.04990059118818 
_cell_angle_gamma                 90.20268692320263 
loop_ 
_atom_site_label 
_atom_site_type_symbol 
_atom_site_fract_x 
_atom_site_fract_y 
_atom_site_fract_z 
_atom_site_charge 
O1          O  0.98957630  0.05343081  0.98656540    -0.73000
O2          O  0.07013586  0.96941062  0.00987849    -0.74000
O3          O  0.00789620  0.99630315  0.95474053    -0.62600
O4          O  0.05066676  0.02666830  0.04137016    -0.71000
O5          O  0.99215998  0.99747146  0.04760417    -0.70600
O6          O  0.94970836  0.96742923  0.96153601    -0.61800
O7          O  0.01205041  0.94002231  0.01645939    -0.74400
O8          O  0.93091456  0.02465827  0.99285205    -0.73100
Cu9        Cu  0.03164275  0.01236450  0.99791938     1.04600
Cu10       Cu  0.96926887  0.98129691  0.00484852     1.04300
C11         C  0.94753309  0.05262093  0.98597770     0.93200
C12         C  0.05414362  0.94135748  0.01697724     0.92300
C13         C  0.97134712  0.97744793  0.94421895     0.84500
C14         C  0.02749709  0.01742432  0.05805509     0.90700
N15         N  0.69730936  0.30767108  0.91261211    -0.27400
N16         N  0.70311021  0.30354075  0.88642178    -0.35200
C17         C  0.72949209  0.27541700  0.88772148     0.01000
C18         C  0.74090450  0.26106323  0.91608585     0.07000
C19         C  0.72024395  0.28236000  0.93137543    -0.06100
H20         H  0.74002939  0.26639989  0.86941530     0.07700
H21         H  0.72114329  0.27935173  0.95427356     0.08900
Cu22       Cu  0.67541178  0.33593182  0.84979940     0.44200
Cu23       Cu  0.65714860  0.34677893  0.92117690     0.42000
Cu24       Cu  0.60056611  0.40359242  0.85789893     0.43900
N25         N  0.64371376  0.37121505  0.81609672    -0.34800
N26         N  0.61604762  0.39607605  0.81909261    -0.29000
C27         C  0.60058911  0.41442008  0.79346166    -0.05100
C28         C  0.61965551  0.40056372  0.77330063     0.07100
C29         C  0.64658670  0.37301414  0.78843915     0.00900
H30         H  0.57634623  0.43572285  0.78965281     0.08600
H31         H  0.66684472  0.35554209  0.78000930     0.07600
N32         N  0.59249975  0.40755979  0.89941569    -0.36200
N33         N  0.61329379  0.38717633  0.92253817    -0.28400
C34         C  0.60138082  0.39723092  0.94608893    -0.03600
C35         C  0.57188064  0.42550575  0.93744365     0.05000
C36         C  0.56684301  0.43108268  0.90762058     0.03100
H37         H  0.61300931  0.38452541  0.96774080     0.08200
H38         H  0.54667674  0.45120492  0.89303526     0.07000
N39         N  0.31668870  0.69199317  0.09197037    -0.27400
N40         N  0.31668869  0.69837861  0.11936326    -0.35200
C41         C  0.29154481  0.72707551  0.11870451     0.01000
C42         C  0.27480594  0.73948954  0.08946492     0.07000
C43         C  0.29141438  0.71636801  0.07315836    -0.06100
H44         H  0.28525262  0.73771926  0.13807202     0.07700
H45         H  0.28428533  0.71627539  0.04918095     0.08900
Cu46       Cu  0.34713746  0.66623724  0.15592572     0.44200
Cu47       Cu  0.34934244  0.64978113  0.08087919     0.42000
Cu48       Cu  0.39832170  0.58765219  0.14027982     0.43900
N49         N  0.37390184  0.62740930  0.18736426    -0.34800
N50         N  0.39131057  0.59818519  0.18130334    -0.29000
C51         C  0.40488839  0.57822243  0.20604693    -0.05100
C52         C  0.39613410  0.59590959  0.22891245     0.07100
C53         C  0.37630465  0.62695959  0.21623737     0.00900
H54         H  0.42119278  0.55311954  0.20752031     0.08600
H55         H  0.36435131  0.64767194  0.22711930     0.07600
N56         N  0.40463072  0.58406509  0.09830150    -0.36200
N57         N  0.38650263  0.60654625  0.07639573    -0.28400
C58         C  0.39731936  0.59692198  0.05231132    -0.03600
C59         C  0.42403071  0.56702800  0.05951057     0.05000
C60         C  0.42763506  0.55966944  0.08885856     0.03100
H61         H  0.38595843  0.61058902  0.03111347     0.08200
H62         H  0.44624268  0.53839579  0.10261687     0.07000
O63         O  0.52397802  0.54849790  0.51417510    -0.73000
O64         O  0.44655783  0.46199811  0.49018651    -0.74000
O65         O  0.50556882  0.49044909  0.54511927    -0.62600
O66         O  0.46413053  0.52026841  0.45917557    -0.71000
O67         O  0.52483454  0.49386282  0.45346416    -0.70600
O68         O  0.56499968  0.46209334  0.53969937    -0.61800
O69         O  0.50619485  0.43498451  0.48365625    -0.74400
O70         O  0.58419103  0.52059265  0.50939942    -0.73100
Cu71       Cu  0.48300785  0.50624522  0.50234672     1.04600
Cu72       Cu  0.54715984  0.47693001  0.49634217     1.04300
C73         C  0.56666312  0.54814979  0.51587170     0.93200
C74         C  0.46407199  0.43479204  0.48297308     0.92300
C75         C  0.54162764  0.47151091  0.55617583     0.84500
C76         C  0.48773732  0.51187640  0.44263771     0.90700
N77         N  0.19898207  0.18538725  0.41217153    -0.27400
N78         N  0.20445959  0.18874428  0.38584069    -0.35200
C79         C  0.23513221  0.21428491  0.38745216     0.01000
C80         C  0.24995982  0.22794443  0.41623651     0.07000
C81         C  0.22601343  0.20895395  0.43126903    -0.06100
H82         H  0.24550470  0.22243839  0.36881433     0.07700
H83         H  0.22674431  0.21258201  0.45404084     0.08900
Cu84       Cu  0.16792934  0.16050771  0.34809147     0.44200
Cu85       Cu  0.15364724  0.14955483  0.42021977     0.42000
Cu86       Cu  0.07489449  0.10668408  0.35371276     0.43900
N87         N  0.12356849  0.13281546  0.31241109    -0.34800
N88         N  0.08836779  0.11398733  0.31411190    -0.29000
C89         C  0.06693084  0.09878909  0.28737357    -0.05100
C90         C  0.08988860  0.10848900  0.26794736     0.07100
C91         C  0.12572587  0.12996444  0.28466552     0.00900
H92         H  0.03828273  0.08065151  0.28292292     0.08600
H93         H  0.15192206  0.14221161  0.27736494     0.07600
N94         N  0.07507424  0.09778918  0.39692558    -0.36200
N95         N  0.10441476  0.11266808  0.42121203    -0.28400
C96         C  0.09674435  0.09995336  0.44556540    -0.03600
C97         C  0.06052709  0.07615828  0.43618677     0.05000
C98         C  0.04789960  0.07535978  0.40517101     0.03100
H99         H  0.11591527  0.10769805  0.46842833     0.08200
H100        H  0.02177774  0.05900526  0.38968535     0.07000
N101        N  0.79728123  0.81468934  0.58865012    -0.27400
N102        N  0.78547295  0.81318244  0.61300410    -0.35200
C103        C  0.75866144  0.78500018  0.61128491     0.01000
C104        C  0.75296188  0.76801734  0.58449902     0.07000
C105        C  0.77817880  0.78756597  0.57081915    -0.06100
H106        H  0.74421955  0.77750112  0.62829455     0.07700
H107        H  0.78323843  0.78217996  0.54975702     0.08900
Cu108      Cu  0.80688109  0.84866332  0.64815034     0.44200
Cu109      Cu  0.83959787  0.85283784  0.58051181     0.42000
Cu110      Cu  0.88328942  0.91570588  0.63963709     0.43900
N111        N  0.83648401  0.88605913  0.68076919    -0.34800
N112        N  0.86433582  0.91072472  0.67735005    -0.29000
C113        C  0.87998344  0.92970543  0.70261355    -0.05100
C114        C  0.86116257  0.91642896  0.72311411     0.07100
C115        C  0.83388574  0.88860535  0.70848855     0.00900
H116        H  0.90522642  0.95044998  0.70628859     0.08600
H117        H  0.81466924  0.87088849  0.71762563     0.07600
N118        N  0.89858462  0.91674126  0.60039238    -0.36200
N119        N  0.88278498  0.89377847  0.57855770    -0.28400
C120        C  0.89811484  0.90242243  0.55601001    -0.03600
C121        C  0.92490915  0.93230538  0.56413085     0.05000
C122        C  0.92421199  0.94060002  0.59238159     0.03100
H123        H  0.88907484  0.88860541  0.53492173     0.08200
H124        H  0.94075465  0.96261096  0.60605929     0.07000
C125        C  0.04080446  0.05540731  0.45541448    -0.20000
C126        C  0.99285273  0.04694386  0.44609662     0.36300
C127        C  0.97603650  0.02678285  0.46492685    -0.25900
C128        C  0.00589913  0.01532738  0.49291039     0.02700
C129        C  0.05351256  0.02407255  0.50253620     0.27500
C130        C  0.07053806  0.04403361  0.48366684    -0.25100
N131        N  0.96119067  0.05944623  0.41793707    -0.82400
H132        H  0.93936342  0.02014219  0.45790224     0.13300
C133        C  0.98649791  0.99422435  0.51188686     0.02700
N134        N  0.08434934  0.01229874  0.53123985    -0.81000
H135        H  0.10729619  0.05037887  0.49090815     0.18100
C136        C  0.98693621  0.95802566  0.50981356    -0.25900
C137        C  0.96725932  0.93710114  0.52671230     0.36200
C138        C  0.94668744  0.95290728  0.54598744    -0.19900
C139        C  0.94678042  0.98924546  0.54813268    -0.25100
C140        C  0.96626971  0.01006701  0.53114538     0.27500
H141        H  0.00258583  0.94613790  0.49487478     0.13300
N142        N  0.96874069  0.89999315  0.52466412    -0.82400
H143        H  0.93074010  0.00151315  0.56267901     0.18200
N144        N  0.96479757  0.04722218  0.53286182    -0.81000
H145        H  0.98976887  0.89070614  0.54565107     0.33800
H146        H  0.98475059  0.89264446  0.50932125     0.38300
H147        H  0.94795532  0.05479051  0.54770066     0.33700
H148        H  0.99908112  0.05620712  0.54196300     0.30400
H149        H  0.11844897  0.02056540  0.53479135     0.33700
H150        H  0.07415000  0.02410981  0.54783214     0.30400
H151        H  0.96036276  0.08646394  0.41930395     0.38300
H152        H  0.92731521  0.05068342  0.41443926     0.33800
C153        C  0.72654196  0.73547392  0.57360070    -0.20000
C154        C  0.70152646  0.72970338  0.54277079     0.36300
C155        C  0.67639964  0.69865709  0.53378102    -0.25900
C156        C  0.67556419  0.67345192  0.55489262     0.02700
C157        C  0.70060697  0.67898849  0.58558083     0.27500
C158        C  0.72580295  0.70996692  0.59463640    -0.25100
N159        N  0.70063940  0.75563157  0.52078215    -0.82400
H160        H  0.65693570  0.69415775  0.51021894     0.13300
C161        C  0.64760174  0.64156479  0.54457953     0.02700
N162        N  0.70000122  0.65321697  0.60738511    -0.81000
H163        H  0.74513457  0.71414258  0.61825073     0.18100
C164        C  0.67029900  0.60970604  0.54681541    -0.25900
C165        C  0.64500924  0.57885273  0.53713453     0.36200
C166        C  0.59563689  0.57994849  0.52536680    -0.19900
C167        C  0.57316556  0.61209441  0.52332407    -0.25100
C168        C  0.59863982  0.64287271  0.53277521     0.27500
H169        H  0.70801843  0.60902568  0.55594947     0.13300
N170        N  0.66944301  0.54654244  0.53994100    -0.82400
H171        H  0.53548138  0.61328055  0.51431275     0.18200
N172        N  0.57505586  0.67545333  0.53072106    -0.81000
H173        H  0.70507295  0.55006729  0.55145421     0.33800
H174        H  0.66649202  0.53857080  0.51828348     0.38300
H175        H  0.53897817  0.67202525  0.52138445     0.33700
H176        H  0.58195153  0.68459269  0.55259337     0.30400
H177        H  0.72045028  0.66115432  0.62899485     0.33700
H178        H  0.66580707  0.65125342  0.60726914     0.30400
H179        H  0.68100943  0.74712697  0.49918173     0.38300
H180        H  0.68350534  0.77730733  0.52511369     0.33800
C181        C  0.28236180  0.25772148  0.42729443    -0.20000
C182        C  0.31014872  0.26153597  0.45785241     0.36300
C183        C  0.34036292  0.29004511  0.46698824    -0.25900
C184        C  0.34368842  0.31484223  0.44617689     0.02700
C185        C  0.31619694  0.31121607  0.41565449     0.27500
C186        C  0.28595683  0.28269840  0.40652743    -0.25100
N187        N  0.30896385  0.23613866  0.47962101    -0.82400
H188        H  0.36172632  0.29267391  0.49045533     0.13300
C189        C  0.37559722  0.34480370  0.45661590     0.02700
N190        N  0.31874379  0.33675638  0.39413805    -0.81000
H191        H  0.26450194  0.28040878  0.38308921     0.18100
C192        C  0.41246565  0.34931193  0.44570177    -0.25900
C193        C  0.44265292  0.37797778  0.45437572     0.36200
C194        C  0.43519196  0.40296982  0.47411922    -0.19900
C195        C  0.39839218  0.39808730  0.48516740    -0.25100
C196        C  0.36863104  0.36924694  0.47669256     0.27500
H197        H  0.41765199  0.33029253  0.43033768     0.13300
N198        N  0.47966744  0.38220777  0.44238693    -0.82400
H199        H  0.39268570  0.41695165  0.50045970     0.18200
N200        N  0.33089541  0.36492672  0.48800867    -0.81000
H201        H  0.47760478  0.36316730  0.42628450     0.33800
H202        H  0.51103229  0.37781780  0.45991835     0.38300
H203        H  0.33072299  0.38506842  0.50270905     0.33700
H204        H  0.29976010  0.36679928  0.46978185     0.30400
H205        H  0.29649049  0.33020225  0.37257547     0.33700
H206        H  0.30657376  0.36015688  0.39970236     0.30400
H207        H  0.34256432  0.22623708  0.48954531     0.38300
H208        H  0.29965757  0.24858209  0.49632368     0.33800
C209        C  0.40744584  0.58430782  0.26035605    -0.20000
C210        C  0.42820095  0.60695451  0.28472884     0.36300
C211        C  0.43983058  0.59442863  0.31424159    -0.25900
C212        C  0.43112478  0.55987219  0.31975007     0.02700
C213        C  0.40994967  0.53732709  0.29552874     0.27500
C214        C  0.39854288  0.54973121  0.26599364    -0.25100
N215        N  0.43864329  0.64222045  0.27946518    -0.82400
H216        H  0.45631972  0.61149292  0.33307745     0.13300
C217        C  0.44574170  0.54732380  0.35107134     0.02700
N218        N  0.40039647  0.50195842  0.30110373    -0.81000
H219        H  0.38251486  0.53240723  0.24727766     0.18100
C220        C  0.41214439  0.54212069  0.36463084    -0.25900
C221        C  0.42481502  0.53010793  0.39436677     0.36200
C222        C  0.47228930  0.52343205  0.41087005    -0.19900
C223        C  0.50572730  0.52834582  0.39695590    -0.25100
C224        C  0.49288334  0.54025982  0.36719759     0.27500
H225        H  0.37590799  0.54735390  0.35187177     0.13300
N226        N  0.38957190  0.52420975  0.40762068    -0.82400
H227        H  0.54209803  0.52330251  0.40945793     0.18200
N228        N  0.52743166  0.54534780  0.35324464    -0.81000
H229        H  0.35666139  0.53080541  0.39258881     0.35000
H230        H  0.38863177  0.49759849  0.41156972     0.38300
H231        H  0.56057537  0.53925555  0.36821470     0.33700
H232        H  0.52031292  0.52779902  0.33541767     0.30400
H233        H  0.38433007  0.48885407  0.28085200     0.33700
H234        H  0.43232499  0.48972355  0.31162004     0.30400
H235        H  0.46380818  0.64166993  0.26908542     0.38300
H236        H  0.45359544  0.65540383  0.29979799     0.33800
C237        C  0.54990132  0.44565346  0.95564444    -0.20000
C238        C  0.57260652  0.45133201  0.98675803     0.36300
C239        C  0.55000016  0.47051102  0.00287463    -0.25900
C240        C  0.50578467  0.48469137  0.98847618     0.02700
C241        C  0.48322707  0.47938739  0.95747442     0.27500
C242        C  0.50554021  0.45997368  0.94134793    -0.25100
N243        N  0.61895232  0.43859581  0.00173114    -0.82400
H244        H  0.56726954  0.47507367  0.02669519     0.13300
C245        C  0.48379215  0.50546648  0.00616338     0.02700
N246        N  0.43765452  0.49357061  0.94260587    -0.81000
H247        H  0.48787810  0.45562083  0.91755431     0.18100
C248        C  0.47706191  0.54104533  0.00049313    -0.25900
C249        C  0.45790451  0.56190757  0.01759223     0.36200
C250        C  0.44423394  0.54654090  0.04044092    -0.19900
C251        C  0.45079483  0.51074231  0.04578560    -0.25100
C252        C  0.47046902  0.49009204  0.02892075     0.27500
H253        H  0.48787771  0.55267040  0.98309751     0.13300
N254        N  0.45373601  0.59863676  0.01236382    -0.82400
H255        H  0.44008296  0.49863563  0.06300383     0.18200
N256        N  0.47684611  0.45353101  0.03468442    -0.81000
H257        H  0.46493815  0.60556381  0.99459684     0.33800
H258        H  0.47631575  0.61086831  0.03153626     0.38300
H259        H  0.46552700  0.44627076  0.05231920     0.33700
H260        H  0.45550670  0.44049833  0.01555243     0.30400
H261        H  0.42594314  0.48747421  0.91972271     0.33700
H262        H  0.41472068  0.48152831  0.95164601     0.30400
H263        H  0.64114265  0.45151848  0.99261214     0.38300
H264        H  0.63037654  0.44485096  0.02458621     0.33800
C265        C  0.61102701  0.41139801  0.74178298    -0.20000
C266        C  0.60349993  0.44648145  0.73283729     0.36300
C267        C  0.59276145  0.45514629  0.70240206    -0.25900
C268        C  0.59015871  0.42966082  0.68082016     0.02700
C269        C  0.59896007  0.39479451  0.68977439     0.27500
C270        C  0.60952924  0.38603574  0.72019427    -0.25100
N271        N  0.60764975  0.47326743  0.75467172    -0.82400
H272        H  0.58669733  0.48198274  0.69542148     0.13300
C273        C  0.57758242  0.43995638  0.64885476     0.02700
N274        N  0.59624895  0.36839655  0.66784350    -0.81000
H275        H  0.61528301  0.35911615  0.72690047     0.18100
C276        C  0.60964828  0.43510235  0.63399682    -0.25900
C277        C  0.59935036  0.44548258  0.60392030     0.36200
C278        C  0.55545408  0.46047148  0.58818265    -0.19900
C279        C  0.52351045  0.46518060  0.60332966    -0.25100
C280        C  0.53408944  0.45510323  0.63339622     0.27500
H281        H  0.64324114  0.42376677  0.64616995     0.13300
N282        N  0.63362009  0.44129564  0.58965339    -0.82400
H283        H  0.48976815  0.47653034  0.59161806     0.18200
N284        N  0.50071092  0.45995602  0.64828823    -0.81000
H285        H  0.66337319  0.42908947  0.60412606     0.33800
H286        H  0.64410442  0.46607128  0.58558376     0.38300
H287        H  0.47049530  0.47167947  0.63387427     0.33700
H288        H  0.49090694  0.43542980  0.65345021     0.30400
H289        H  0.60385213  0.34408564  0.67810228     0.33700
H290        H  0.56174962  0.36725996  0.65319060     0.30400
H291        H  0.64233283  0.47379504  0.76907830     0.38300
H292        H  0.60082108  0.49757224  0.74433691     0.33800
C293        C  0.04061554  0.03013781  0.08951191    -0.20000
C294        C  0.06844452  0.06011747  0.09969490     0.36300
C295        C  0.07765109  0.07177269  0.12929317    -0.25900
C296        C  0.05949031  0.05440718  0.14886928     0.02700
C297        C  0.03245008  0.02424989  0.13898677     0.27500
C298        C  0.02313811  0.01255157  0.10944550    -0.25100
N299        N  0.08623587  0.07923771  0.07987671    -0.82400
H300        H  0.09806006  0.09513333  0.13692596     0.13300
C301        C  0.06782540  0.06868410  0.17936286     0.02700
N302        N  0.01462462  0.00561506  0.15904921    -0.81000
H303        H  0.00207696  0.98946121  0.10198895     0.18100
C304        C  0.02954088  0.07730276  0.18789857    -0.25900
C305        C  0.03579932  0.09075281  0.21656360     0.36200
C306        C  0.08137149  0.09571615  0.23708584    -0.19900
C307        C  0.11965492  0.08778680  0.22830303    -0.25100
C308        C  0.11336678  0.07398835  0.19975222     0.27500
H309        H  0.99460727  0.07375849  0.17197817     0.13300
N310        N  0.99611439  0.09994450  0.22466996    -0.82400
H311        H  0.15465217  0.09141877  0.24409501     0.18200
N312        N  0.15296389  0.06476765  0.19155567    -0.81000
H313        H  0.96514714  0.09451601  0.20706393     0.33800
H314        H  0.99710915  0.12677985  0.22790823     0.38300
H315        H  0.18398694  0.07038351  0.20906009     0.33700
H316        H  0.15208835  0.03791132  0.18848403     0.30400
H317        H  0.99515684  0.98409150  0.14828028     0.33700
H318        H  0.04313949  0.99605044  0.17662546     0.30400
H319        H  0.05775498  0.09015305  0.06310841     0.38300
H320        H  0.10701947  0.09994470  0.09118961     0.33800
C321        C  0.95372723  0.96777948  0.91171331    -0.20000
C322        C  0.90996106  0.95126156  0.89794054     0.36300
C323        C  0.89440133  0.94422104  0.86695581    -0.25900
C324        C  0.92161922  0.95251010  0.84937169     0.02700
C325        C  0.96519895  0.96874626  0.86288648     0.27500
C326        C  0.98062184  0.97639892  0.89378405    -0.25100
N327        N  0.88104124  0.94190938  0.91515372    -0.82400
H328        H  0.86083033  0.93188041  0.85639362     0.13300
C329        C  0.90434860  0.94327324  0.81694424     0.02700
N330        N  0.99380351  0.97709351  0.84522093    -0.81000
H331        H  0.01408777  0.98900452  0.90390275     0.18100
C332        C  0.89764771  0.96941998  0.79528277    -0.25900
C333        C  0.88203742  0.96147449  0.76443411     0.36200
C334        C  0.87338172  0.92655982  0.75510934    -0.19900
C335        C  0.87873006  0.90058912  0.77679771    -0.25100
C336        C  0.89446798  0.90853394  0.80760466     0.27500
H337        H  0.90443576  0.99614131  0.80252518     0.13300
N338        N  0.87441422  0.98874474  0.74259274    -0.82400
H339        H  0.87230431  0.87378868  0.76977716     0.18200
N340        N  0.90149260  0.88138098  0.82950909    -0.81000
H341        H  0.88252574  0.01286930  0.75316533     0.33800
H342        H  0.83881132  0.98913067  0.73006348     0.38300
H343        H  0.89247129  0.85729960  0.81897941     0.33700
H344        H  0.93711809  0.88040434  0.84189500     0.30400
H345        H  0.02472072  0.98912902  0.85847062     0.33700
H346        H  0.00329119  0.95378614  0.83770281     0.30400
H347        H  0.89733033  0.92136005  0.92917682     0.38300
H348        H  0.84885299  0.93233936  0.90117590     0.33800
C349        C  0.24280204  0.76925263  0.07801947    -0.20000
C350        C  0.24261001  0.78876102  0.05266247     0.36300
C351        C  0.21076803  0.81610120  0.04245764    -0.25900
C352        C  0.17983785  0.82489577  0.05734770     0.02700
C353        C  0.18031387  0.80580112  0.08281880     0.27500
C354        C  0.21159294  0.77813373  0.09278958    -0.25100
N355        N  0.27527237  0.78137915  0.03772095    -0.82400
H356        H  0.21029754  0.83091671  0.02291211     0.13300
C357        C  0.14773421  0.85461777  0.04637428     0.02700
N358        N  0.14924139  0.81477258  0.09857493    -0.81000
H359        H  0.21121446  0.76325774  0.11209157     0.18100
C360        C  0.09948689  0.84924172  0.03756671    -0.25900
C361        C  0.06799357  0.87683738  0.02743314     0.36200
C362        C  0.08528064  0.91072769  0.02633232    -0.19900
C363        C  0.13371896  0.91580096  0.03479032    -0.25100
C364        C  0.16504703  0.88820715  0.04490789     0.27500
H365        H  0.08638161  0.82326712  0.03839865     0.13300
N366        N  0.01870775  0.87036192  0.01804024    -0.82400
H367        H  0.14743323  0.94159488  0.03411581     0.18200
N368        N  0.21444041  0.89423853  0.05417752    -0.81000
H369        H  0.01204359  0.84424388  0.02090133     0.33800
H370        H  0.00478249  0.87527595  0.99495868     0.38300
H371        H  0.22148465  0.92035510  0.05158231     0.33700
H372        H  0.22860460  0.88883858  0.07715442     0.30400
H373        H  0.15375103  0.79806072  0.11673546     0.33700
H374        H  0.15842246  0.83955978  0.10759476     0.30400
H375        H  0.30862256  0.78671578  0.05286008     0.38300
H376        H  0.27012970  0.79791773  0.01937716     0.33800
C377        C  0.76966020  0.22998328  0.92768492    -0.20000
C378        C  0.76548247  0.20012487  0.90969527     0.36300
C379        C  0.79461961  0.17166079  0.92122606    -0.25900
C380        C  0.82766170  0.17247248  0.95025141     0.02700
C381        C  0.83162469  0.20199938  0.96839750     0.27500
C382        C  0.80226261  0.23045520  0.95699485    -0.25100
N383        N  0.73131267  0.19860274  0.87999175    -0.82400
H384        H  0.79183243  0.14874960  0.90749422     0.13300
C385        C  0.85857968  0.14232823  0.96092788     0.02700
N386        N  0.86567564  0.20297781  0.99815575    -0.81000
H387        H  0.80550844  0.25337052  0.97077107     0.18100
C388        C  0.90517342  0.14498437  0.96291086    -0.25900
C389        C  0.93496967  0.11621321  0.97068894     0.36200
C390        C  0.91777231  0.08408972  0.97730862    -0.19900
C391        C  0.87099025  0.08196224  0.97578700    -0.25100
C392        C  0.84126107  0.11072431  0.96758680     0.27500
H393        H  0.91794302  0.16946195  0.95751646     0.13300
N394        N  0.98229325  0.11971303  0.97158156    -0.82400
H395        H  0.85730198  0.05771265  0.98083447     0.18200
N396        N  0.79345668  0.10802150  0.96581924    -0.81000
H397        H  0.98980270  0.14546790  0.96803760     0.33800
H398        H  0.98525337  0.10565727  0.95346343     0.38300
H399        H  0.78600922  0.08291752  0.97122458     0.33700
H400        H  0.78901383  0.12444434  0.98215723     0.30400
H401        H  0.86437618  0.22669522  0.00849554     0.33700
H402        H  0.85665972  0.18387993  0.01086120     0.30400
H403        H  0.69843595  0.19958797  0.88217260     0.38300
H404        H  0.73309449  0.17492619  0.86972809     0.33800
loop_ 
_geom_bond_atom_site_label_1 
_geom_bond_atom_site_label_2 
_geom_bond_distance 
_geom_bond_site_symmetry_2 
_ccdc_geom_bond_type 
O1           Cu9   1.998   1_655  S
O1           C11   1.276       .  A
O2           Cu9   2.002   1_564  S
O2           C12   1.277       .  A
O3           Cu9   2.019   1_565  S
O3           C13   1.280   1_455  A
O4           Cu9   2.015   1_554  S
O4           C14   1.279       .  A
O5          Cu10   2.003       .  S
O5           C14   1.278   1_665  A
O6          Cu10   2.004   1_556  S
O6           C13   1.276       .  A
O7          Cu10   2.017   1_455  S
O7           C12   1.279       .  A
O8          Cu10   2.013   1_546  S
O8           C11   1.279       .  A
Cu9         Cu10   2.364   1_446  S
C11         C390   1.490       .  S
C12         C362   1.489       .  S
C13         C321   1.494       .  S
C14         C293   1.488       .  S
N15          N16   1.322       .  A
N15          C19   1.346       .  A
N15         Cu23   2.075       .  S
N16          C17   1.343       .  A
N16         Cu22   2.070       .  S
C17          C18   1.383       .  A
C17          H20   1.082       .  S
C18         C377   1.479       .  S
C18          C19   1.385       .  A
C19          H21   1.082       .  S
Cu22         N25   2.070       .  S
Cu23         N33   2.075       .  S
Cu24         N26   2.071       .  S
Cu24         N32   2.071       .  S
N25          N26   1.320       .  A
N25          C29   1.345       .  A
N26          C27   1.344       .  A
C27          C28   1.387       .  A
C27          H30   1.081       .  S
C28         C265   1.485       .  S
C28          C29   1.386       .  A
C29          H31   1.082       .  S
N32          N33   1.322       .  A
N32          C36   1.343       .  A
N33          C34   1.345       .  A
C34          C35   1.387       .  A
C34          H37   1.081       .  S
C35         C237   1.484       .  S
C35          C36   1.385       .  A
C36          H38   1.082       .  S
N39          N40   1.321       .  A
N39          C43   1.344       .  A
N39         Cu47   2.073       .  S
N40          C41   1.344       .  A
N40         Cu46   2.074       .  S
C41          C42   1.387       .  A
C41          H44   1.082       .  S
C42         C349   1.487       .  S
C42          C43   1.387       .  A
C43          H45   1.081       .  S
Cu46         N49   2.074       .  S
Cu47         N57   2.073       .  S
Cu48         N50   2.068       .  S
Cu48         N56   2.068       .  S
N49          N50   1.322       .  A
N49          C53   1.345       .  A
N50          C51   1.344       .  A
C51          C52   1.383       .  A
C51          H54   1.082       .  S
C52         C209   1.479       .  S
C52          C53   1.385       .  A
C53          H55   1.082       .  S
N56          N57   1.321       .  A
N56          C60   1.342       .  A
N57          C58   1.345       .  A
C58          C59   1.389       .  A
C58          H61   1.081       .  S
C59         C250   1.487       .  S
C59          C60   1.386       .  A
C60          H62   1.082       .  S
O63         Cu71   2.011       .  S
O63          C73   1.279       .  A
O64         Cu71   2.009       .  S
O64          C74   1.279       .  A
O65         Cu71   1.999       .  S
O65          C75   1.277       .  A
O66         Cu71   2.000       .  S
O66          C76   1.276       .  A
O67         Cu72   2.017       .  S
O67          C76   1.280       .  A
O68         Cu72   2.019       .  S
O68          C75   1.279       .  A
O69         Cu72   2.005       .  S
O69          C74   1.276       .  A
O70         Cu72   2.003       .  S
O70          C73   1.276       .  A
Cu71        Cu72   2.367       .  S
C73         C166   1.487       .  S
C74         C194   1.484       .  S
C75         C278   1.490       .  S
C76         C222   1.483       .  S
N77          N78   1.321       .  A
N77          C81   1.346       .  A
N77         Cu85   2.079       .  S
N78          C79   1.342       .  A
N78         Cu84   2.064       .  S
C79          C80   1.385       .  A
C79          H82   1.082       .  S
C80         C181   1.487       .  S
C80          C81   1.390       .  A
C81          H83   1.081       .  S
Cu84         N87   2.064       .  S
Cu85         N95   2.080       .  S
Cu86         N88   2.073       .  S
Cu86         N94   2.074       .  S
N87          N88   1.321       .  A
N87          C91   1.343       .  A
N88          C89   1.345       .  A
C89          C90   1.386       .  A
C89          H92   1.082       .  S
C90         C306   1.479       .  S
C90          C91   1.383       .  A
C91          H93   1.082       .  S
N94          N95   1.322       .  A
N94          C98   1.345       .  A
N95          C96   1.346       .  A
C96          C97   1.386       .  A
C96          H99   1.082       .  S
C97         C125   1.485       .  S
C97          C98   1.386       .  A
C98         H100   1.082       .  S
N101        N102   1.323       .  A
N101        C105   1.345       .  A
N101       Cu109   2.077       .  S
N102        C103   1.345       .  A
N102       Cu108   2.080       .  S
C103        C104   1.386       .  A
C103        H106   1.082       .  S
C104        C153   1.484       .  S
C104        C105   1.386       .  A
C105        H107   1.081       .  S
Cu108       N111   2.080       .  S
Cu109       N119   2.077       .  S
Cu110       N112   2.067       .  S
Cu110       N118   2.067       .  S
N111        N112   1.321       .  A
N111        C115   1.346       .  A
N112        C113   1.343       .  A
C113        C114   1.384       .  A
C113        H116   1.082       .  S
C114        C334   1.484       .  S
C114        C115   1.388       .  A
C115        H117   1.082       .  S
N118        N119   1.321       .  A
N118        C122   1.343       .  A
N119        C120   1.347       .  A
C120        C121   1.388       .  A
C120        H123   1.082       .  S
C121        C138   1.484       .  S
C121        C122   1.384       .  A
C122        H124   1.082       .  S
C125        C126   1.415   1_455  A
C125        C130   1.406       .  A
C126        C127   1.405       .  A
C126        N131   1.437       .  S
C127        C128   1.399   1_655  A
C127        H132   1.084       .  S
C128        C133   1.478   1_445  S
C128        C129   1.407       .  A
C129        C130   1.406       .  A
C129        N134   1.438       .  S
C130        H135   1.083       .  S
N131        H151   1.046       .  S
N131        H152   1.046       .  S
C133        C136   1.401       .  A
C133        C140   1.407   1_565  A
N134        H149   1.046       .  S
N134        H150   1.045       .  S
C136        C137   1.407       .  A
C136        H141   1.084   1_655  S
C137        C138   1.414       .  A
C137        N142   1.437       .  S
C138        C139   1.406       .  A
C139        C140   1.404   1_565  A
C139        H143   1.083   1_565  S
C140        N144   1.438       .  S
N142        H145   1.045       .  S
N142        H146   1.046       .  S
N144        H147   1.046       .  S
N144        H148   1.045       .  S
C153        C154   1.415       .  A
C153        C158   1.406       .  A
C154        C155   1.406       .  A
C154        N159   1.437       .  S
C155        C156   1.401       .  A
C155        H160   1.084       .  S
C156        C161   1.480       .  S
C156        C157   1.408       .  A
C157        C158   1.405       .  A
C157        N162   1.438       .  S
C158        H163   1.083       .  S
N159        H179   1.046       .  S
N159        H180   1.045       .  S
C161        C164   1.400       .  A
C161        C168   1.407       .  A
N162        H177   1.046       .  S
N162        H178   1.046       .  S
C164        C165   1.406       .  A
C164        H169   1.084       .  S
C165        C166   1.419       .  A
C165        N170   1.438       .  S
C166        C167   1.407       .  A
C167        C168   1.404       .  A
C167        H171   1.083       .  S
C168        N172   1.438       .  S
N170        H173   1.046       .  S
N170        H174   1.045       .  S
N172        H175   1.046       .  S
N172        H176   1.046       .  S
C181        C182   1.413       .  A
C181        C186   1.407       .  A
C182        C183   1.403       .  A
C182        N187   1.431       .  S
C183        C184   1.401       .  A
C183        H188   1.084       .  S
C184        C189   1.481       .  S
C184        C185   1.408       .  A
C185        C186   1.404       .  A
C185        N190   1.438       .  S
C186        H191   1.082       .  S
N187        H207   1.045       .  S
N187        H208   1.046       .  S
C189        C192   1.402       .  A
C189        C196   1.408       .  A
N190        H205   1.046       .  S
N190        H206   1.046       .  S
C192        C193   1.406       .  A
C192        H197   1.084       .  S
C193        C194   1.417       .  A
C193        N198   1.438       .  S
C194        C195   1.406       .  A
C195        C196   1.404       .  A
C195        H199   1.083       .  S
C196        N200   1.438       .  S
N198        H201   1.046       .  S
N198        H202   1.045       .  S
N200        H203   1.045       .  S
N200        H204   1.046       .  S
C209        C210   1.413       .  A
C209        C214   1.404       .  A
C210        C211   1.405       .  A
C210        N215   1.438       .  S
C211        C212   1.400       .  A
C211        H216   1.084       .  S
C212        C217   1.477       .  S
C212        C213   1.408       .  A
C213        C214   1.405       .  A
C213        N218   1.438       .  S
C214        H219   1.084       .  S
N215        H235   1.046       .  S
N215        H236   1.046       .  S
C217        C220   1.399       .  A
C217        C224   1.407       .  A
N218        H233   1.046       .  S
N218        H234   1.045       .  S
C220        C221   1.406       .  A
C220        H225   1.084       .  S
C221        C222   1.417       .  A
C221        N226   1.438       .  S
C222        C223   1.405       .  A
C223        C224   1.405       .  A
C223        H227   1.083       .  S
C224        N228   1.438       .  S
N226        H229   1.046       .  S
N226        H230   1.046       .  S
N228        H231   1.045       .  S
N228        H232   1.046       .  S
C237        C238   1.415       .  A
C237        C242   1.406       .  A
C238        C239   1.405   1_556  A
C238        N243   1.437   1_556  S
C239        C240   1.401   1_554  A
C239        H244   1.084       .  S
C240        C245   1.479   1_556  S
C240        C241   1.407       .  A
C241        C242   1.404       .  A
C241        N246   1.438       .  S
C242        H247   1.083       .  S
N243        H263   1.046   1_554  S
N243        H264   1.046       .  S
C245        C248   1.401       .  A
C245        C252   1.407       .  A
N246        H261   1.045       .  S
N246        H262   1.046       .  S
C248        C249   1.406       .  A
C248        H253   1.084   1_554  S
C249        C250   1.416       .  A
C249        N254   1.437       .  S
C250        C251   1.407       .  A
C251        C252   1.403       .  A
C251        H255   1.083       .  S
C252        N256   1.438       .  S
N254        H257   1.046   1_554  S
N254        H258   1.045       .  S
N256        H259   1.046       .  S
N256        H260   1.046       .  S
C265        C266   1.414       .  A
C265        C270   1.406       .  A
C266        C267   1.405       .  A
C266        N271   1.437       .  S
C267        C268   1.402       .  A
C267        H272   1.084       .  S
C268        C273   1.483       .  S
C268        C269   1.409       .  A
C269        C270   1.406       .  A
C269        N274   1.438       .  S
C270        H275   1.083       .  S
N271        H291   1.046       .  S
N271        H292   1.046       .  S
C273        C276   1.402       .  A
C273        C280   1.408       .  A
N274        H289   1.046       .  S
N274        H290   1.046       .  S
C276        C277   1.408       .  A
C276        H281   1.084       .  S
C277        C278   1.417       .  A
C277        N282   1.438       .  S
C278        C279   1.408       .  A
C279        C280   1.403       .  A
C279        H283   1.083       .  S
C280        N284   1.438       .  S
N282        H285   1.046       .  S
N282        H286   1.046       .  S
N284        H287   1.046       .  S
N284        H288   1.045       .  S
C293        C294   1.417       .  A
C293        C298   1.407       .  A
C294        C295   1.406       .  A
C294        N299   1.438       .  S
C295        C296   1.402       .  A
C295        H300   1.084       .  S
C296        C301   1.485       .  S
C296        C297   1.409       .  A
C297        C298   1.404       .  A
C297        N302   1.438       .  S
C298        H303   1.083   1_545  S
N299        H319   1.046       .  S
N299        H320   1.045       .  S
C301        C304   1.404       .  A
C301        C308   1.410       .  A
N302        H317   1.046   1_445  S
N302        H318   1.045   1_545  S
C304        C305   1.405       .  A
C304        H309   1.084   1_455  S
C305        C306   1.411       .  A
C305        N310   1.438   1_455  S
C306        C307   1.404       .  A
C307        C308   1.405       .  A
C307        H311   1.083       .  S
C308        N312   1.438       .  S
N310        H313   1.045       .  S
N310        H314   1.046       .  S
N312        H315   1.046       .  S
N312        H316   1.046       .  S
C321        C322   1.420       .  A
C321        C326   1.409       .  A
C322        C323   1.406       .  A
C322        N327   1.438       .  S
C323        C324   1.400       .  A
C323        H328   1.084       .  S
C324        C329   1.487       .  S
C324        C325   1.409       .  A
C325        C326   1.407       .  A
C325        N330   1.438       .  S
C326        H331   1.083   1_655  S
N327        H347   1.045       .  S
N327        H348   1.046       .  S
C329        C332   1.403       .  A
C329        C336   1.411       .  A
N330        H345   1.046   1_655  S
N330        H346   1.046   1_655  S
C332        C333   1.407       .  A
C332        H337   1.084       .  S
C333        C334   1.414       .  A
C333        N338   1.438       .  S
C334        C335   1.404       .  A
C335        C336   1.405       .  A
C335        H339   1.083       .  S
C336        N340   1.438       .  S
N338        H341   1.046   1_565  S
N338        H342   1.046       .  S
N340        H343   1.046       .  S
N340        H344   1.046       .  S
C349        C350   1.415       .  A
C349        C354   1.406       .  A
C350        C351   1.406       .  A
C350        N355   1.437       .  S
C351        C352   1.402       .  A
C351        H356   1.084       .  S
C352        C357   1.485       .  S
C352        C353   1.409       .  A
C353        C354   1.405       .  A
C353        N358   1.438       .  S
C354        H359   1.083       .  S
N355        H375   1.046       .  S
N355        H376   1.046       .  S
C357        C360   1.403       .  A
C357        C364   1.409       .  A
N358        H373   1.046       .  S
N358        H374   1.045       .  S
C360        C361   1.407       .  A
C360        H365   1.084       .  S
C361        C362   1.416       .  A
C361        N366   1.438       .  S
C362        C363   1.408       .  A
C363        C364   1.404       .  A
C363        H367   1.083       .  S
C364        N368   1.438       .  S
N366        H369   1.045       .  S
N366        H370   1.046   1_554  S
N368        H371   1.046       .  S
N368        H372   1.045       .  S
C377        C378   1.413       .  A
C377        C382   1.405       .  A
C378        C379   1.403       .  A
C378        N383   1.438       .  S
C379        C380   1.400       .  A
C379        H384   1.084       .  S
C380        C385   1.477       .  S
C380        C381   1.408       .  A
C381        C382   1.406       .  A
C381        N386   1.437       .  S
C382        H387   1.084       .  S
N383        H403   1.045       .  S
N383        H404   1.046       .  S
C385        C388   1.398       .  A
C385        C392   1.406       .  A
N386        H401   1.046   1_556  S
N386        H402   1.045   1_556  S
C388        C389   1.405       .  A
C388        H393   1.084       .  S
C389        C390   1.421       .  A
C389        N394   1.438       .  S
C390        C391   1.409       .  A
C391        C392   1.404       .  A
C391        H395   1.083       .  S
C392        N396   1.438       .  S
N394        H397   1.045       .  S
N394        H398   1.046       .  S
N396        H399   1.046       .  S
N396        H400   1.045       .  S
