geometry optimzed in LAMMPS
_audit_creation_date              2020-11-30 
_audit_creation_method            'lammps2cif' 
_symmetry_space_group_name_H-M    'P1' 
_symmetry_Int_Tables_number       1 
_symmetry_cell_setting            triclinic 
loop_ 
_symmetry_equiv_pos_as_xyz 
  x,y,z 
_cell_length_a                    35.88280824 
_cell_length_b                    35.77413962790207 
_cell_length_c                    50.018241751225204 
_cell_angle_alpha                 90.68303410432624 
_cell_angle_beta                  89.8075118814358 
_cell_angle_gamma                 120.15624301063062 
loop_ 
_atom_site_label 
_atom_site_type_symbol 
_atom_site_fract_x 
_atom_site_fract_y 
_atom_site_fract_z 
_atom_site_charge 
C1          C  0.60956576  0.35644734  0.25282436     0.87500
C2          C  0.58560784  0.30851539  0.24496545    -0.52700
C3          C  0.60831418  0.28821874  0.25002171     0.10500
C4          C  0.65305010  0.31774292  0.26264461     0.21400
C5          C  0.62112924  0.35787341  0.28246236    -0.53400
C6          C  0.64404964  0.33765852  0.28761320     0.10600
C7          C  0.65263363  0.37594914  0.23800054    -0.53000
C8          C  0.67540624  0.35574477  0.24317117     0.11100
H9          H  0.55388226  0.29226229  0.23573086     0.15700
H10         H  0.67170836  0.30131046  0.26674547     0.01400
H11         H  0.61294179  0.37426868  0.29781771     0.16000
H12         H  0.66417857  0.40336148  0.22472236     0.15800
C13         C  0.73121681  0.40589136  0.39985603     0.87500
C14         C  0.75422475  0.38031562  0.40450183    -0.52700
C15         C  0.73033137  0.33782329  0.39721563     0.10500
C16         C  0.68541314  0.32477179  0.38576987     0.21400
C17         C  0.71869017  0.39917300  0.37020240    -0.53400
C18         C  0.69451774  0.35667588  0.36278902     0.10600
C19         C  0.68854106  0.38136803  0.41496635    -0.53000
C20         C  0.66451022  0.33896092  0.40759929     0.11100
H21         H  0.78618644  0.39431894  0.41326516     0.15700
H22         H  0.66575510  0.29015150  0.37982771     0.01400
H23         H  0.72705363  0.42558327  0.35650541     0.16000
H24         H  0.67804808  0.39629799  0.42996300     0.15800
N25         N  0.13264866  0.78402985  0.51110522    -0.26200
N26         N  0.13447618  0.82149883  0.50766782    -0.34100
C27         C  0.09564173  0.81420543  0.49971279     0.02100
C28         C  0.06818202  0.77004744  0.49780970     0.08100
C29         C  0.09263489  0.75180962  0.50511557    -0.05000
H30         H  0.08821299  0.83925189  0.49522695     0.08800
H31         H  0.08207134  0.71773561  0.50630297     0.10000
Cu32       Cu  0.19006445  0.88097780  0.51217721     0.44200
Cu33       Cu  0.18456627  0.77900964  0.52437598     0.42000
Cu34       Cu  0.28730074  0.88117873  0.52885824     0.43900
N35         N  0.25013085  0.93642559  0.51259231    -0.33600
N36         N  0.28636683  0.93662758  0.51764016    -0.27900
C37         C  0.31974892  0.97715313  0.51464730    -0.04000
C38         C  0.30348917  0.00359887  0.50767654     0.08200
C39         C  0.25929094  0.97669004  0.50661832     0.02000
H40         H  0.35324916  0.98669127  0.51755402     0.09700
H41         H  0.23552448  0.98549645  0.50133628     0.08800
N42         N  0.27831508  0.82147326  0.54060421    -0.35100
N43         N  0.24116903  0.78462257  0.53894373    -0.27300
C44         C  0.24653180  0.75238492  0.54806443    -0.02500
C45         C  0.28892318  0.76984932  0.55585242     0.06100
C46         C  0.30827556  0.81354870  0.55084574     0.04200
H47         H  0.22151558  0.71874875  0.54868706     0.09300
H48         H  0.34172313  0.83774469  0.55411532     0.08200
N49         N  0.80584209  0.69933660  0.47450408    -0.26200
N50         N  0.84250498  0.73530568  0.47967240    -0.34100
C51         C  0.83405000  0.76660499  0.48681482     0.02100
C52         C  0.78990905  0.74934241  0.48639888     0.08100
C53         C  0.77292790  0.70661806  0.47858335    -0.05000
H54         H  0.85823125  0.79924853  0.49238252     0.08800
H55         H  0.73926363  0.68276360  0.47572152     0.10000
Cu56       Cu  0.90206795  0.73953419  0.47853969     0.44200
Cu57       Cu  0.80298561  0.64282385  0.46130146     0.42000
Cu58       Cu  0.90379815  0.64152816  0.46309065     0.43900
N59         N  0.95667407  0.73425145  0.48123314    -0.33600
N60         N  0.95719828  0.69803010  0.47672631    -0.27900
C61         C  0.99697906  0.70496867  0.48196059    -0.04000
C62         C  0.02258324  0.74769452  0.48988510     0.08200
C63         C  0.99606481  0.76529445  0.48912095     0.02000
H64         H  0.00656164  0.68082596  0.47995207     0.09700
H65         H  0.00444855  0.79798745  0.49447505     0.08800
N66         N  0.84658206  0.59159970  0.44748787    -0.35100
N67         N  0.81001495  0.59219864  0.44677375    -0.27300
C68         C  0.77934067  0.55532585  0.43528608    -0.02500
C69         C  0.79760266  0.53060908  0.42847569     0.06100
C70         C  0.84011178  0.55428008  0.43648314     0.04200
H71         H  0.74619457  0.54704892  0.43235789     0.09300
H72         H  0.86445344  0.54502631  0.43466259     0.08200
N73         N  0.37861168  0.11618317  0.49114343    -0.26200
N74         N  0.34272771  0.11738355  0.49482216    -0.34100
C75         C  0.31083911  0.07774211  0.50140515     0.02100
C76         C  0.32748152  0.05029056  0.50217405     0.08100
C77         C  0.37060652  0.07573986  0.49565958    -0.05000
H78         H  0.27794628  0.06955333  0.50534453     0.08800
H79         H  0.39410745  0.06539473  0.49360425     0.10000
Cu80       Cu  0.33871479  0.17291975  0.49092267     0.44200
Cu81       Cu  0.43551414  0.16938144  0.47825976     0.42000
Cu82       Cu  0.43572935  0.27172049  0.47386425     0.43900
N83         N  0.34179954  0.23219348  0.48797178    -0.33600
N84         N  0.37765818  0.26888331  0.48300037    -0.27900
C85         C  0.36886481  0.30135319  0.48331792    -0.04000
C86         C  0.32528364  0.28402250  0.48831627     0.08200
C87         C  0.30917481  0.24015091  0.49110330     0.02000
H88         H  0.39220329  0.33486618  0.47951517     0.09700
H89         H  0.27622332  0.21579699  0.49537819     0.08800
N90         N  0.48630083  0.26294652  0.46129829    -0.35100
N91         N  0.48614096  0.22592888  0.46284361    -0.27300
C92         C  0.52268697  0.23082806  0.45194423    -0.02500
C93         C  0.54676556  0.27277064  0.44313564     0.06100
C94         C  0.52297311  0.29231076  0.44935134     0.04200
H95         H  0.53074989  0.20554219  0.45024429     0.09300
H96         H  0.53134456  0.32521434  0.44516331     0.08200
N97         N  0.13027170  0.35650601  0.48867522    -0.26200
N98         N  0.13191250  0.32083636  0.48416809    -0.34100
C99         C  0.09269523  0.28907002  0.47636801     0.02100
C100        C  0.06515446  0.30558398  0.47560668     0.08100
C101        C  0.09006539  0.34847377  0.48342468    -0.05000
H102        H  0.08483337  0.25633334  0.47159634     0.08800
H103        H  0.07942940  0.37173725  0.48596651     0.10000
Cu104      Cu  0.18738057  0.31658389  0.48834048     0.44200
Cu105      Cu  0.18206913  0.41342032  0.50374905     0.42000
Cu106      Cu  0.28348971  0.41344504  0.50853041     0.43900
N107        N  0.24731191  0.32093432  0.49105212    -0.33600
N108        N  0.28308958  0.35721551  0.49724196    -0.27900
C109        C  0.31650252  0.35002200  0.49663375    -0.04000
C110        C  0.30084653  0.30696052  0.49014097     0.08200
C111        C  0.25687237  0.28947206  0.48679024     0.02000
H112        H  0.34947323  0.37399274  0.50144186     0.09700
H113        H  0.23354234  0.25634895  0.48157456     0.08800
N114        N  0.27471340  0.46338879  0.52253903    -0.35100
N115        N  0.23801317  0.46362143  0.52087449    -0.27300
C116        C  0.24333738  0.50031250  0.53231429    -0.02500
C117        C  0.28523615  0.52394699  0.54160061     0.06100
C118        C  0.30424007  0.49978075  0.53507460     0.04200
H119        H  0.21856515  0.50903288  0.53375509     0.09300
H120        H  0.33710427  0.50797981  0.53912183     0.08200
N121        N  0.79879328  0.11216095  0.46621208    -0.26200
N122        N  0.83582687  0.11368200  0.47065297    -0.34100
C123        C  0.82790125  0.07504990  0.47947193     0.02100
C124        C  0.78376075  0.04799323  0.48087658     0.08100
C125        C  0.76620888  0.07254212  0.47239919    -0.05000
H126        H  0.85251957  0.06739941  0.48468920     0.08800
H127        H  0.73236090  0.06220037  0.47039010     0.10000
Cu128      Cu  0.89556304  0.16860729  0.46574823     0.44200
Cu129      Cu  0.79515895  0.16392663  0.45099446     0.42000
Cu130      Cu  0.89735836  0.26606884  0.44574757     0.43900
N131        N  0.95137014  0.22843460  0.46432872    -0.33600
N132        N  0.95215194  0.26470382  0.45826518    -0.27900
C133        C  0.99278899  0.29798142  0.46129349    -0.04000
C134        C  0.01870322  0.28161456  0.46928025     0.08200
C135        C  0.99137212  0.23746031  0.47090088     0.02000
H136        H  0.00275605  0.33150808  0.45779985     0.09700
H137        H  0.99966789  0.21371231  0.47716894     0.08800
N138        N  0.83787090  0.25685163  0.43299077    -0.35100
N139        N  0.80101852  0.21982960  0.43488723    -0.27300
C140        C  0.76882665  0.22502460  0.42544516    -0.02500
C141        C  0.78625649  0.26718018  0.41717097     0.06100
C142        C  0.82995567  0.28655244  0.42227217     0.04200
H143        H  0.73515548  0.20020149  0.42523465     0.09300
H144        H  0.85408327  0.31999259  0.41901848     0.08200
N145        N  0.71109519  0.93704504  0.50172966    -0.26200
N146        N  0.74744795  0.93664825  0.49831994    -0.34100
C147        C  0.77854170  0.97595034  0.49069515     0.02100
C148        C  0.76099026  0.00243873  0.48895334     0.08100
C149        C  0.71810105  0.97680262  0.49601758    -0.05000
H150        H  0.81130540  0.98427799  0.48617750     0.08800
H151        H  0.69392929  0.98637799  0.49713549     0.10000
Cu152      Cu  0.75328384  0.88242438  0.50196089     0.44200
Cu153      Cu  0.65461799  0.88320987  0.51475576     0.42000
Cu154      Cu  0.65840740  0.78268038  0.51661418     0.43900
N155        N  0.75088595  0.82361234  0.50015270    -0.33600
N156        N  0.71530808  0.78635806  0.50430520    -0.27900
C157        C  0.72345778  0.75396889  0.49988622    -0.04000
C158        C  0.76637626  0.77197340  0.49290778     0.08200
C159        C  0.78281667  0.81613701  0.49333277     0.02000
H160        H  0.70006498  0.71997818  0.50194313     0.09700
H161        H  0.81531419  0.84099340  0.48851694     0.08800
N162        N  0.60756956  0.78904471  0.53090345    -0.35100
N163        N  0.60599530  0.82522981  0.53031788    -0.27300
C164        C  0.56903022  0.81811178  0.54182196    -0.02500
C165        C  0.54666760  0.77563897  0.54999715     0.06100
C166        C  0.57176152  0.75806760  0.54273931     0.04200
H167        H  0.55925039  0.84207050  0.54405782     0.09300
H168        H  0.56464105  0.72525315  0.54582612     0.08200
N169        N  0.37713494  0.41210146  0.18222500    -0.26200
N170        N  0.37692772  0.44798767  0.17648746    -0.34100
C171        C  0.33700282  0.43791824  0.16911522     0.02100
C172        C  0.31082941  0.39356382  0.16996276     0.08100
C173        C  0.33723414  0.37805547  0.17828029    -0.05000
H174        H  0.32794690  0.46121684  0.16309833     0.08800
H175        H  0.32808614  0.34468085  0.18153724     0.10000
Cu176      Cu  0.43077782  0.50918671  0.17710537     0.44200
Cu177      Cu  0.43162406  0.41192384  0.19589775     0.42000
Cu178      Cu  0.53098222  0.51601949  0.19406594     0.43900
N179        N  0.48957750  0.56576569  0.17468592    -0.33600
N180        N  0.52673093  0.56788075  0.17969351    -0.27900
C181        C  0.55904957  0.60811161  0.17461187    -0.04000
C182        C  0.54120201  0.63248266  0.16635149     0.08200
C183        C  0.49712683  0.60471424  0.16671530     0.02000
H184        H  0.59293274  0.61891169  0.17708649     0.09700
H185        H  0.47239985  0.61196388  0.16103820     0.08800
N186        N  0.52643777  0.46049583  0.20980868    -0.35100
N187        N  0.49036053  0.42260748  0.21046428    -0.27300
C188        C  0.49858215  0.39348166  0.22168313    -0.02500
C189        C  0.54172136  0.41419295  0.22842126     0.06100
C190        C  0.55853753  0.45648623  0.22059478     0.04200
H191        H  0.47504885  0.35967653  0.22433058     0.09300
H192        H  0.59170691  0.48228048  0.22219991     0.08200
N193        N  0.96424499  0.56763892  0.16713344    -0.26200
N194        N  0.00041501  0.56714288  0.16298504    -0.34100
C195        C  0.03239541  0.60768851  0.15820829     0.02100
C196        C  0.01546172  0.63494069  0.15912364     0.08100
C197        C  0.97215072  0.60845048  0.16474577    -0.05000
H198        H  0.06542225  0.61655856  0.15405298     0.08800
H199        H  0.94828764  0.61820032  0.16738855     0.10000
Cu200      Cu  0.00410331  0.51095883  0.16292682     0.44200
Cu201      Cu  0.90643230  0.51293928  0.17726610     0.42000
Cu202      Cu  0.90432531  0.41046921  0.17492487     0.43900
N203        N  0.99802743  0.45008177  0.16037312    -0.33600
N204        N  0.96129160  0.41342102  0.16357057    -0.27900
C205        C  0.96812511  0.38003864  0.15973153    -0.04000
C206        C  0.01131931  0.39655127  0.15417752     0.08200
C207        C  0.02932698  0.44099323  0.15479621     0.02000
H208        H  0.94369747  0.34634151  0.16158841     0.09700
H209        H  0.06269522  0.46500745  0.15132481     0.08800
N210        N  0.85392766  0.41749317  0.18923425    -0.35100
N211        N  0.85464965  0.45483957  0.19009575    -0.27300
C212        C  0.81797232  0.44875573  0.20143113    -0.02500
C213        C  0.79328266  0.40566362  0.20795323     0.06100
C214        C  0.81682568  0.38667836  0.19999072     0.04200
H215        H  0.81020501  0.47394816  0.20499347     0.09300
H216        H  0.80803431  0.35318552  0.20217575     0.08200
N217        N  0.19976050  0.31771077  0.15049127    -0.26200
N218        N  0.19849789  0.35375776  0.15383029    -0.34100
C219        C  0.23752258  0.38572102  0.16146492     0.02100
C220        C  0.26472938  0.36904895  0.16326513     0.08100
C221        C  0.23981117  0.32575191  0.15628058    -0.05000
H222        H  0.24541483  0.41868540  0.16543346     0.08800
H223        H  0.25026672  0.30222488  0.15475616     0.10000
Cu224      Cu  0.14405126  0.35846820  0.14857615     0.44200
Cu225      Cu  0.14709538  0.26083685  0.13638939     0.42000
Cu226      Cu  0.04620851  0.26303167  0.12930212     0.43900
N227        N  0.08549224  0.35601508  0.14649544    -0.33600
N228        N  0.04884471  0.32054686  0.14050845    -0.27900
C229        C  0.01648294  0.32924103  0.14239117    -0.04000
C230        C  0.03395461  0.37236644  0.14960196     0.08200
C231        C  0.07771521  0.38830410  0.15197569     0.02000
H232        H  0.98290102  0.30607814  0.13851081     0.09700
H233        H  0.10207877  0.42075395  0.15777800     0.08800
N234        N  0.05447010  0.21181187  0.11698851    -0.35100
N235        N  0.09079196  0.21100280  0.11955697    -0.27300
C236        C  0.08510589  0.17351108  0.10927454    -0.02500
C237        C  0.04339892  0.14984961  0.09979008     0.06100
C238        C  0.02479664  0.17483901  0.10501464     0.04200
H239        H  0.10949372  0.16419367  0.10885599     0.09300
H240        H  0.99208126  0.16673273  0.10056004     0.08200
N241        N  0.49944884  0.10270237  0.20508651    -0.26200
N242        N  0.53577279  0.10158688  0.20389236    -0.34100
C243        C  0.56801832  0.13856005  0.21436124     0.02100
C244        C  0.55116204  0.16395351  0.22253797     0.08100
C245        C  0.50777829  0.14051522  0.21635440    -0.05000
H246        H  0.60123675  0.14633130  0.21580975     0.08800
H247        H  0.48402205  0.15020657  0.21972198     0.10000
Cu248      Cu  0.54086044  0.05003900  0.18876175     0.44200
Cu249      Cu  0.43958166  0.05269548  0.19208603     0.42000
Cu250      Cu  0.43930248  0.95362622  0.17772022     0.43900
N251        N  0.53553557  0.99203401  0.17622591    -0.33600
N252        N  0.49788994  0.95618791  0.17337280    -0.27900
C253        C  0.50442073  0.92366704  0.16609526    -0.04000
C254        C  0.54830102  0.93987219  0.16399754     0.08200
C255        C  0.56716310  0.98337323  0.17049550     0.02000
H256        H  0.47902109  0.89081125  0.16218339     0.09700
H257        H  0.60125314  0.00681381  0.17137300     0.08800
N258        N  0.38440806  0.95874987  0.17703331    -0.35100
N259        N  0.38420569  0.99524108  0.18106382    -0.27300
C260        C  0.34380066  0.98772087  0.17718827    -0.02500
C261        C  0.31753190  0.94434401  0.17066394     0.06100
C262        C  0.34437130  0.92707703  0.17084198     0.04200
H263        H  0.33426683  0.01191483  0.17907914     0.09300
H264        H  0.33572354  0.89409713  0.16612118     0.08200
N265        N  0.61391335  0.74274756  0.14492343    -0.26200
N266        N  0.57876487  0.74465376  0.15016620    -0.34100
C267        C  0.54754847  0.70573017  0.15838799     0.02100
C268        C  0.56400682  0.67815373  0.15864035     0.08100
C269        C  0.60618169  0.70262538  0.15007781    -0.05000
H270        H  0.51554052  0.69835059  0.16425204     0.08800
H271        H  0.62933346  0.69194839  0.14742631     0.10000
Cu272      Cu  0.57552610  0.80063794  0.14776206     0.44200
Cu273      Cu  0.67003441  0.79468282  0.13024910     0.42000
Cu274      Cu  0.67232724  0.89785955  0.12904627     0.43900
N275        N  0.58163908  0.86128306  0.14909420    -0.33600
N276        N  0.61759178  0.89737275  0.14332273    -0.27900
C277        C  0.61159969  0.93119084  0.14786059    -0.04000
C278        C  0.56972417  0.91536366  0.15662563     0.08200
C279        C  0.55169018  0.87098703  0.15709452     0.02000
H280        H  0.63574477  0.96467285  0.14475200     0.09700
H281        H  0.51942750  0.84746132  0.16330521     0.08800
N282        N  0.72139576  0.88856077  0.11430954    -0.35100
N283        N  0.72053415  0.85113717  0.11478050    -0.27300
C284        C  0.75709119  0.85618179  0.10385599    -0.02500
C285        C  0.78189146  0.89865340  0.09613854     0.06100
C286        C  0.75855638  0.91838457  0.10306015     0.04200
H287        H  0.76512421  0.83090227  0.10194328     0.09300
H288        H  0.76799714  0.95195792  0.10039756     0.08200
N289        N  0.20544507  0.90453564  0.15171635    -0.26200
N290        N  0.20486477  0.86775484  0.15567285    -0.34100
C291        C  0.24440368  0.87649506  0.16314974     0.02100
C292        C  0.27116410  0.92087586  0.16419115     0.08100
C293        C  0.24541758  0.93773125  0.15689249    -0.05000
H294        H  0.25294319  0.85223159  0.16763550     0.08800
H295        H  0.25519047  0.97151939  0.15491221     0.10000
Cu296      Cu  0.15028757  0.80697612  0.15183753     0.44200
Cu297      Cu  0.15196633  0.90709317  0.13825967     0.42000
Cu298      Cu  0.05076424  0.80355325  0.13662258     0.43900
N299        N  0.09092202  0.75023425  0.15145895    -0.33600
N300        N  0.05405569  0.74911465  0.14707539    -0.27900
C301        C  0.02146784  0.70805772  0.14936133    -0.04000
C302        C  0.03877382  0.68210908  0.15516476     0.08200
C303        C  0.08286907  0.70991963  0.15629537     0.02000
H304        H  0.98776920  0.69776643  0.14651064     0.09700
H305        H  0.10730517  0.70159165  0.16064521     0.08800
N306        N  0.05760300  0.86138071  0.12281833    -0.35100
N307        N  0.09422198  0.89885916  0.12329744    -0.27300
C308        C  0.08764625  0.92921005  0.11218951    -0.02500
C309        C  0.04501360  0.90979082  0.10435809     0.06100
C310        C  0.02685037  0.86694536  0.11138575     0.04200
H311        H  0.11212352  0.96279849  0.10992522     0.09300
H312        H  0.99378317  0.84159963  0.10832419     0.08200
C313        C  0.90635983  0.95826481  0.06832980     0.87500
C314        C  0.93123388  0.00541444  0.07793723    -0.52700
C315        C  0.97368216  0.02637837  0.07103895     0.10500
C316        C  0.98749301  0.99827159  0.05501605     0.21400
C317        C  0.91359566  0.95993844  0.03802989    -0.53400
C318        C  0.95612338  0.98087957  0.03100125     0.10600
C319        C  0.93123170  0.93752140  0.07964062    -0.53000
C320        C  0.97371061  0.95845850  0.07272913     0.11100
H321        H  0.91672442  0.02070594  0.08946296     0.15700
H322        H  0.02212626  0.01540262  0.04941838     0.01400
H323        H  0.88753559  0.94620595  0.02347243     0.16000
H324        H  0.91670700  0.90916290  0.09224882     0.15800
C325        C  0.96658973  0.02177334  0.90817652     0.87500
C326        C  0.94751439  0.97468562  0.89881812    -0.52700
C327        C  0.96566770  0.95362019  0.91085571     0.10500
C328        C  0.00122684  0.98157701  0.93132021     0.21400
C329        C  0.96144131  0.01966850  0.93864256    -0.53400
C330        C  0.97952966  0.99861625  0.95083702     0.10600
C331        C  0.01509459  0.04264936  0.90332151    -0.53000
C332        C  0.03325918  0.02159823  0.91532347     0.11100
H333        H  0.92230316  0.95952467  0.88378897     0.15700
H334        H  0.01601141  0.96440550  0.94110819     0.01400
H335        H  0.94459918  0.03316252  0.94956080     0.16000
H336        H  0.03329249  0.07098152  0.89100746     0.15800
C337        C  0.42375500  0.71125221  0.58008113     0.87500
C338        C  0.39947279  0.73428089  0.57182423    -0.52700
C339        C  0.35714646  0.71288629  0.57894219     0.10500
C340        C  0.34276315  0.67022041  0.59369257     0.21400
C341        C  0.41677972  0.70479100  0.61035423    -0.53400
C342        C  0.37426536  0.68330067  0.61749935     0.10600
C343        C  0.39814209  0.66583012  0.56773190    -0.53000
C344        C  0.35574884  0.64431825  0.57481494     0.11100
H345        H  0.41434909  0.76469377  0.56119299     0.15700
H346        H  0.30818371  0.65273758  0.59942490     0.01400
H347        H  0.44294400  0.71608209  0.62477081     0.16000
H348        H  0.41217549  0.65203203  0.55442573     0.15800
C349        C  0.35964029  0.63046683  0.73881743     0.87500
C350        C  0.31093562  0.60889635  0.74322092    -0.52700
C351        C  0.29281204  0.63045095  0.73179230     0.10500
C352        C  0.32512485  0.67159884  0.71678064     0.21400
C353        C  0.36573104  0.63462033  0.70844437    -0.53400
C354        C  0.34777290  0.65624428  0.69684766     0.10600
C355        C  0.37807371  0.67685230  0.74932873    -0.53000
C356        C  0.35999121  0.69836832  0.73784251     0.11100
H357        H  0.29259500  0.57977897  0.75485956     0.15700
H358        H  0.31046857  0.68925076  0.70746222     0.01400
H359        H  0.38338219  0.62236292  0.69720234     0.16000
H360        H  0.40295641  0.69129258  0.76460207     0.15800
N361        N  0.41414375  0.99013707  0.81210788    -0.26200
N362        N  0.45107829  0.02672300  0.81534197    -0.34100
C363        C  0.44299489  0.05789400  0.82342331     0.02100
C364        C  0.39889746  0.04009010  0.82564529     0.08100
C365        C  0.38150912  0.99703491  0.81837615    -0.05000
H366        H  0.46753563  0.09092093  0.82784404     0.08800
H367        H  0.34770842  0.97263665  0.81748029     0.10000
Cu368      Cu  0.51121938  0.03266662  0.81061244     0.44200
Cu369      Cu  0.41049698  0.93305338  0.79884953     0.42000
Cu370      Cu  0.51297110  0.93471053  0.79802187     0.43900
N371        N  0.56741087  0.02967270  0.81018612    -0.33600
N372        N  0.56791583  0.99321292  0.80693451    -0.27900
C373        C  0.60884396  0.00163347  0.80878901    -0.04000
C374        C  0.63531113  0.04559962  0.81309106     0.08200
C375        C  0.60800746  0.06238151  0.81382838     0.02000
H376        H  0.61866513  0.97770191  0.80652282     0.09700
H377        H  0.61688826  0.09580304  0.81705537     0.08800
N378        N  0.45517451  0.88309680  0.78437917    -0.35100
N379        N  0.41792795  0.88238718  0.78442415    -0.27300
C380        C  0.38748070  0.84478964  0.77340574    -0.02500
C381        C  0.40670882  0.82109130  0.76608417     0.06100
C382        C  0.44944275  0.84610533  0.77334106     0.04200
H383        H  0.35396785  0.83550749  0.77092871     0.09300
H384        H  0.47459448  0.83812574  0.77074699     0.08200
N385        N  0.32660536  0.07794331  0.84840176    -0.26200
N386        N  0.36237103  0.11502322  0.84405327    -0.34100
C387        C  0.39320243  0.10704532  0.83542173     0.02100
C388        C  0.37606979  0.06281501  0.83401962     0.08100
C389        C  0.33371378  0.04523219  0.84232389    -0.05000
H390        H  0.42557409  0.13173028  0.83020409     0.08800
H391        H  0.31001719  0.01128673  0.84413033     0.10000
Cu392      Cu  0.36786754  0.17512933  0.84851402     0.44200
Cu393      Cu  0.27059802  0.07459888  0.86302635     0.42000
Cu394      Cu  0.27269472  0.17830419  0.86574900     0.43900
N395        N  0.36533982  0.23160304  0.84936367    -0.33600
N396        N  0.32981500  0.23283720  0.85446586    -0.27900
C397        C  0.33814977  0.27376002  0.85172140    -0.04000
C398        C  0.38113124  0.29937612  0.84489380     0.08200
C399        C  0.39735196  0.27160778  0.84364666     0.02000
H400        H  0.31483338  0.28413171  0.85475257     0.09700
H401        H  0.42978194  0.27965245  0.83836084     0.08800
N402        N  0.22169471  0.11998786  0.87901344    -0.35100
N403        N  0.22077047  0.08250722  0.87812431    -0.27300
C404        C  0.18287116  0.05159737  0.88806372    -0.02500
C405        C  0.15918783  0.07070465  0.89561687     0.06100
C406        C  0.18452579  0.11388047  0.88955273     0.04200
H407        H  0.17305423  0.01770278  0.88921489     0.09300
H408        H  0.17627810  0.13892839  0.89212531     0.08200
N409        N  0.99799913  0.57245438  0.79798359    -0.26200
N410        N  0.96198874  0.53531354  0.80174918    -0.34100
C411        C  0.93140562  0.54324806  0.81102829     0.02100
C412        C  0.94888725  0.58748582  0.81350872     0.08100
C413        C  0.99125001  0.60509277  0.80510464    -0.05000
H414        H  0.89896080  0.51849069  0.81604065     0.08800
H415        H  0.01525338  0.63905518  0.80403467     0.10000
Cu416      Cu  0.95597825  0.47498415  0.79583907     0.44200
Cu417      Cu  0.05403314  0.57591053  0.78289324     0.42000
Cu418      Cu  0.05034699  0.47149216  0.77617434     0.43900
N419        N  0.95820852  0.41817816  0.79370022    -0.33600
N420        N  0.99345816  0.41691219  0.78768138    -0.27900
C421        C  0.98532456  0.37601068  0.79017572    -0.04000
C422        C  0.94273344  0.35035449  0.79778161     0.08200
C423        C  0.92652856  0.37812282  0.79973151     0.02000
H424        H  0.00859219  0.36572402  0.78661002     0.09700
H425        H  0.89443809  0.37007711  0.80588494     0.08800
N426        N  0.10220713  0.53055626  0.76467582    -0.35100
N427        N  0.10388507  0.56829480  0.76712862    -0.27300
C428        C  0.14254425  0.59965706  0.75836168    -0.02500
C429        C  0.16591625  0.58059726  0.74994264     0.06100
C430        C  0.13957303  0.53694776  0.75427883     0.04200
H431        H  0.15311356  0.63380060  0.75863600     0.09300
H432        H  0.14731676  0.51173277  0.75073449     0.08200
N433        N  0.90761643  0.76737696  0.86736953    -0.26200
N434        N  0.87039142  0.76674773  0.86709539    -0.34100
C435        C  0.87616934  0.80410922  0.87758814     0.02100
C436        C  0.91889283  0.82939229  0.88483688     0.08100
C437        C  0.93806715  0.80535724  0.87806519    -0.05000
H438        H  0.85107684  0.81228057  0.87968140     0.08800
H439        H  0.97161826  0.81480745  0.88054084     0.10000
Cu440      Cu  0.81246741  0.71510287  0.85332661     0.44200
Cu441      Cu  0.91517843  0.71638072  0.85312818     0.42000
Cu442      Cu  0.81424180  0.61711135  0.84056577     0.43900
N443        N  0.75740622  0.65660600  0.84405853    -0.33600
N444        N  0.75792560  0.62013899  0.84083836    -0.27900
C445        C  0.71741463  0.58755974  0.83659130    -0.04000
C446        C  0.69011164  0.60437791  0.83684505     0.08200
C447        C  0.71654989  0.64828753  0.84154978     0.02000
H448        H  0.70862750  0.55422704  0.83304838     0.09700
H449        H  0.70675779  0.67228436  0.84345024     0.08800
N450        N  0.87444213  0.62318383  0.83498534    -0.35100
N451        N  0.91147544  0.65958273  0.83854016    -0.27300
C452        C  0.94394271  0.65284846  0.83133239    -0.02500
C453        C  0.92637355  0.61010476  0.82310123     0.06100
C454        C  0.88231484  0.59237091  0.82576520     0.04200
H455        H  0.97777746  0.67716311  0.83216992     0.09300
H456        H  0.85762189  0.55962523  0.82083687     0.08200
N457        N  0.90375750  0.23816924  0.81588766    -0.26200
N458        N  0.86693383  0.23702250  0.81118474    -0.34100
C459        C  0.87529484  0.27649679  0.80376920     0.02100
C460        C  0.91946888  0.30373670  0.80347366     0.08100
C461        C  0.93659008  0.27837383  0.81113490    -0.05000
H462        H  0.85093639  0.28476119  0.79902329     0.08800
H463        H  0.97030652  0.28873324  0.81398918     0.10000
Cu464      Cu  0.80665356  0.18207853  0.81486516     0.44200
Cu465      Cu  0.90707576  0.18577234  0.83079340     0.42000
Cu466      Cu  0.80467315  0.08464414  0.83447931     0.43900
N467        N  0.75045944  0.12254063  0.81737770    -0.33600
N468        N  0.74989502  0.08640136  0.82346821    -0.27900
C469        C  0.70895855  0.05335609  0.82257572    -0.04000
C470        C  0.68251957  0.06965044  0.81591776     0.08200
C471        C  0.70985238  0.11359256  0.81281657     0.02000
H472        H  0.69912096  0.02014323  0.82704159     0.09700
H473        H  0.70097315  0.13727909  0.80740870     0.08800
N474        N  0.86259199  0.09270295  0.84862629    -0.35100
N475        N  0.89984746  0.12942679  0.84752384    -0.27300
C476        C  0.93034963  0.12401917  0.85953374    -0.02500
C477        C  0.91120011  0.08201399  0.86852631     0.06100
C478        C  0.86838771  0.06304292  0.86131077     0.04200
H479        H  0.96376176  0.14894701  0.86182669     0.09300
H480        H  0.84313038  0.03032371  0.86532191     0.08200
N481        N  0.42147857  0.41215786  0.82801064    -0.26200
N482        N  0.45803642  0.41290165  0.83297556    -0.34100
C483        C  0.44914752  0.37306376  0.83991653     0.02100
C484        C  0.40491596  0.34607118  0.83959888     0.08100
C485        C  0.38831078  0.37190397  0.83207306    -0.05000
H486        H  0.47317157  0.36442591  0.84484459     0.08800
H487        H  0.35474304  0.36191767  0.82894251     0.10000
Cu488      Cu  0.51863349  0.46791426  0.83051267     0.44200
Cu489      Cu  0.41883849  0.46514579  0.81385689     0.42000
Cu490      Cu  0.52199779  0.56563135  0.81046967     0.43900
N491        N  0.57517133  0.52751810  0.82938217    -0.33600
N492        N  0.57621569  0.56380247  0.82303937    -0.27900
C493        C  0.61707888  0.59684972  0.82508736    -0.04000
C494        C  0.64302462  0.58043400  0.83277078     0.08200
C495        C  0.61540367  0.53638467  0.83525143     0.02000
H496        H  0.62725848  0.63017693  0.82072151     0.12100
H497        H  0.62384108  0.51255356  0.84111418     0.08800
N498        N  0.46429926  0.55820704  0.79615834    -0.35100
N499        N  0.42681363  0.52174535  0.79735607    -0.27300
C500        C  0.39640153  0.52755591  0.78562477    -0.02500
C501        C  0.41579829  0.56955685  0.77669052     0.06100
C502        C  0.45870447  0.58814591  0.78365399     0.04200
H503        H  0.36283449  0.50292648  0.78356573     0.09300
H504        H  0.48408646  0.62084475  0.77972851     0.08200
C505        C  0.37275195  0.74215991  0.74568154    -0.12200
C506        C  0.38665816  0.77845728  0.75427556    -0.13800
C507        C  0.24773666  0.61653054  0.73558203    -0.12200
C508        C  0.21015793  0.60167874  0.74121248    -0.13800
C509        C  0.37921726  0.60760909  0.75157271    -0.12200
C510        C  0.39565503  0.58981476  0.76281630    -0.13800
C511        C  0.35274607  0.66582737  0.66857298    -0.12200
C512        C  0.36077401  0.67361682  0.64509796    -0.13800
C513        C  0.07812792  0.03508793  0.91129712    -0.12200
C514        C  0.11546376  0.04979928  0.90517852    -0.13800
C515        C  0.95280049  0.90939828  0.90379657    -0.12200
C516        C  0.93898397  0.87268678  0.89586444    -0.13800
C517        C  0.94720090  0.04433628  0.89476729    -0.12200
C518        C  0.93120792  0.06210922  0.88297664    -0.13800
C519        C  0.96943088  0.98704913  0.00324774    -0.12200
C520        C  0.97630505  0.99195270  0.97947049    -0.13800
C521        C  0.02338833  0.92983493  0.09191484    -0.12200
C522        C  0.00257630  0.94443402  0.08235450    -0.13800
C523        C  0.82441031  0.91875913  0.08476665    -0.12200
C524        C  0.86085125  0.93606998  0.07640854    -0.13800
C525        C  0.00240998  0.07058645  0.07935791    -0.12200
C526        C  0.02265188  0.10708712  0.08807979    -0.13800
C527        C  0.50500724  0.75359751  0.56250274    -0.12200
C528        C  0.46907768  0.73452014  0.57164488    -0.13800
C529        C  0.32646615  0.60132819  0.56465533    -0.12200
C530        C  0.30582017  0.56575350  0.55463134    -0.13800
C531        C  0.30950777  0.74698818  0.56552573    -0.12200
C532        C  0.32921836  0.72964030  0.57249194    -0.13800
C533        C  0.75659314  0.45136548  0.40830301    -0.12200
C534        C  0.77600982  0.48791915  0.41688399    -0.13800
C535        C  0.74611534  0.30838584  0.40182308    -0.12200
C536        C  0.76326347  0.28801593  0.40793640    -0.13800
C537        C  0.62259396  0.31129173  0.41909403    -0.12200
C538        C  0.58782228  0.29219913  0.42979882    -0.13800
C539        C  0.71715699  0.37012415  0.23145478    -0.12200
C540        C  0.75197674  0.38521680  0.22091587    -0.13800
C541        C  0.59166755  0.24359237  0.24232675    -0.12200
C542        C  0.57423098  0.20684275  0.23396385    -0.13800
C543        C  0.58508838  0.37803819  0.24656460    -0.12200
C544        C  0.56510974  0.39486716  0.23915249    -0.13800
C545        C  0.67620303  0.34413131  0.33621625    -0.12200
C546        C  0.66120875  0.33867204  0.31393556    -0.13800
loop_ 
_geom_bond_atom_site_label_1 
_geom_bond_atom_site_label_2 
_geom_bond_distance 
_geom_bond_site_symmetry_2 
_ccdc_geom_bond_type 
C1            C2   1.529       .  S
C1            C7   1.532       .  S
C1            C5   1.534       .  S
C1          C543   1.468       .  S
C2            H9   1.086       .  S
C2            C3   1.362       .  D
C3            C4   1.542       .  S
C3          C541   1.443       .  S
C4            C8   1.540       .  S
C4            C6   1.542       .  S
C4           H10   1.111       .  S
C5           H11   1.087       .  S
C5            C6   1.367       .  D
C6          C546   1.448       .  S
C7           H12   1.086       .  S
C7            C8   1.362       .  D
C8          C539   1.442       .  S
C13          C14   1.529       .  S
C13          C19   1.531       .  S
C13          C17   1.532       .  S
C13         C533   1.467       .  S
C14          H21   1.086       .  S
C14          C15   1.363       .  D
C15          C16   1.545       .  S
C15         C535   1.445       .  S
C16          C20   1.542       .  S
C16          C18   1.544       .  S
C16          H22   1.111       .  S
C17          H23   1.087       .  S
C17          C18   1.366       .  D
C18         C545   1.447       .  S
C19          H24   1.086       .  S
C19          C20   1.362       .  D
C20         C537   1.444       .  S
N25          N26   1.322       .  A
N25          C29   1.346       .  A
N25         Cu33   2.071       .  S
N26          C27   1.343       .  A
N26         Cu32   2.070       .  S
C27          C28   1.382       .  A
C27          H30   1.081       .  S
C28          C29   1.383       .  A
C28          C62   1.468       .  S
C29          H31   1.082       .  S
Cu32         N35   2.070       .  S
Cu33         N43   2.072       .  S
Cu34         N36   2.084       .  S
Cu34         N42   2.085       .  S
N35          N36   1.322       .  A
N35          C39   1.344       .  A
N36          C37   1.348       .  A
C37          C38   1.386   1_565  A
C37          H40   1.082       .  S
C38          C39   1.382   1_545  A
C38          C76   1.474       .  S
C39          H41   1.082       .  S
N42          N43   1.324       .  A
N42          C46   1.346       .  A
N43          C44   1.346       .  A
C44          C45   1.378       .  A
C44          H47   1.082       .  S
C45          C46   1.381       .  A
C45         C531   1.438       .  S
C46          H48   1.082       .  S
N49          N50   1.322       .  A
N49          C53   1.346       .  A
N49         Cu57   2.072       .  S
N50          C51   1.343       .  A
N50         Cu56   2.066       .  S
C51          C52   1.381       .  A
C51          H54   1.082       .  S
C52          C53   1.383       .  A
C52         C158   1.467       .  S
C53          H55   1.082       .  S
Cu56         N59   2.066       .  S
Cu57         N67   2.073       .  S
Cu58         N60   2.075       .  S
Cu58         N66   2.075       .  S
N59          N60   1.322       .  A
N59          C63   1.343       .  A
N60          C61   1.346       .  A
C61          C62   1.384   1_655  A
C61          H64   1.082   1_655  S
C62          C63   1.381   1_455  A
C63          H65   1.082   1_655  S
N66          N67   1.324       .  A
N66          C70   1.346       .  A
N67          C68   1.345       .  A
C68          C69   1.379       .  A
C68          H71   1.082       .  S
C69          C70   1.379       .  A
C69         C534   1.436       .  S
C70          H72   1.082       .  S
N73          N74   1.322       .  A
N73          C77   1.348       .  A
N73         Cu81   2.079       .  S
N74          C75   1.344       .  A
N74         Cu80   2.074       .  S
C75          C76   1.383       .  A
C75          H78   1.082       .  S
C76          C77   1.385       .  A
C77          H79   1.082       .  S
Cu80         N83   2.074       .  S
Cu81         N91   2.079       .  S
Cu82         N84   2.084       .  S
Cu82         N90   2.085       .  S
N83          N84   1.323       .  A
N83          C87   1.345       .  A
N84          C85   1.348       .  A
C85          C86   1.385       .  A
C85          H88   1.082       .  S
C86          C87   1.382       .  A
C86         C110   1.474       .  S
C87          H89   1.082       .  S
N90          N91   1.325       .  A
N90          C94   1.346       .  A
N91          C92   1.347       .  A
C92          C93   1.379       .  A
C92          H95   1.082       .  S
C93          C94   1.381       .  A
C93         C538   1.440       .  S
C94          H96   1.082       .  S
N97          N98   1.323       .  A
N97         C101   1.348       .  A
N97        Cu105   2.083       .  S
N98          C99   1.345       .  A
N98        Cu104   2.082       .  S
C99         C100   1.384       .  A
C99         H102   1.082       .  S
C100        C101   1.384       .  A
C100        C134   1.475       .  S
C101        H103   1.082       .  S
Cu104       N107   2.081       .  S
Cu105       N115   2.084       .  S
Cu106       N108   2.076       .  S
Cu106       N114   2.078       .  S
N107        N108   1.322       .  A
N107        C111   1.346       .  A
N108        C109   1.347       .  A
C109        C110   1.383       .  A
C109        H112   1.082       .  S
C110        C111   1.384       .  A
C111        H113   1.082       .  S
N114        N115   1.324       .  A
N114        C118   1.345       .  A
N115        C116   1.348       .  A
C116        C117   1.382       .  A
C116        H119   1.082       .  S
C117        C118   1.380       .  A
C117        C530   1.441       .  S
C118        H120   1.082       .  S
N121        N122   1.322       .  A
N121        C125   1.347       .  A
N121       Cu129   2.074       .  S
N122        C123   1.343       .  A
N122       Cu128   2.072       .  S
C123        C124   1.382       .  A
C123        H126   1.081       .  S
C124        C125   1.384       .  A
C124        C148   1.470       .  S
C125        H127   1.082       .  S
Cu128       N131   2.072       .  S
Cu129       N139   2.075       .  S
Cu130       N132   2.089       .  S
Cu130       N138   2.090       .  S
N131        N132   1.323       .  A
N131        C135   1.344       .  A
N132        C133   1.349       .  A
C133        C134   1.386   1_655  A
C133        H136   1.082   1_655  S
C134        C135   1.382   1_455  A
C135        H137   1.082       .  S
N138        N139   1.324       .  A
N138        C142   1.347       .  A
N139        C140   1.347       .  A
C140        C141   1.379       .  A
C140        H143   1.082       .  S
C141        C142   1.382       .  A
C141        C536   1.442       .  S
C142        H144   1.082       .  S
N145        N146   1.322       .  A
N145        C149   1.348       .  A
N145       Cu153   2.083       .  S
N146        C147   1.342       .  A
N146       Cu152   2.063       .  S
C147        C148   1.380   1_565  A
C147        H150   1.082       .  S
C148        C149   1.386   1_545  A
C149        H151   1.082       .  S
Cu152       N155   2.063       .  S
Cu153       N163   2.085       .  S
Cu154       N156   2.071       .  S
Cu154       N162   2.072       .  S
N155        N156   1.321       .  A
N155        C159   1.343       .  A
N156        C157   1.346       .  A
C157        C158   1.383       .  A
C157        H160   1.082       .  S
C158        C159   1.381       .  A
C159        H161   1.082       .  S
N162        N163   1.324       .  A
N162        C166   1.345       .  A
N163        C164   1.347       .  A
C164        C165   1.381       .  A
C164        H167   1.082       .  S
C165        C166   1.378       .  A
C165        C527   1.438       .  S
C166        H168   1.082       .  S
N169        N170   1.322       .  A
N169        C173   1.348       .  A
N169       Cu177   2.077       .  S
N170        C171   1.342       .  A
N170       Cu176   2.068       .  S
C171        C172   1.380       .  A
C171        H174   1.081       .  S
C172        C173   1.384       .  A
C172        C220   1.469       .  S
C173        H175   1.082       .  S
Cu176       N179   2.068       .  S
Cu177       N187   2.077       .  S
Cu178       N180   2.073       .  S
Cu178       N186   2.074       .  S
N179        N180   1.321       .  A
N179        C183   1.344       .  A
N180        C181   1.346       .  A
C181        C182   1.383       .  A
C181        H184   1.082       .  S
C182        C183   1.382       .  A
C182        C268   1.469       .  S
C183        H185   1.082       .  S
N186        N187   1.324       .  A
N186        C190   1.345       .  A
N187        C188   1.346       .  A
C188        C189   1.380       .  A
C188        H191   1.082       .  S
C189        C190   1.379       .  A
C189        C544   1.437       .  S
C190        H192   1.082       .  S
N193        N194   1.323   1_655  A
N193        C197   1.347       .  A
N193       Cu201   2.080       .  S
N194        C195   1.346       .  A
N194       Cu200   2.080       .  S
C195        C196   1.384       .  A
C195        H198   1.082       .  S
C196        C197   1.384   1_455  A
C196        C302   1.475       .  S
C197        H199   1.082       .  S
Cu200       N203   2.079   1_455  S
Cu201       N211   2.080       .  S
Cu202       N204   2.071       .  S
Cu202       N210   2.071       .  S
N203        N204   1.323       .  A
N203        C207   1.344   1_655  A
N204        C205   1.346       .  A
C205        C206   1.382   1_655  A
C205        H208   1.082       .  S
C206        C207   1.383       .  A
C206        C230   1.470       .  S
C207        H209   1.082       .  S
N210        N211   1.323       .  A
N210        C214   1.346       .  A
N211        C212   1.346       .  A
C212        C213   1.380       .  A
C212        H215   1.082       .  S
C213        C214   1.379       .  A
C213        C540   1.438       .  S
C214        H216   1.082       .  S
N217        N218   1.322       .  A
N217        C221   1.348       .  A
N217       Cu225   2.078       .  S
N218        C219   1.341       .  A
N218       Cu224   2.061       .  S
C219        C220   1.380       .  A
C219        H222   1.081       .  S
C220        C221   1.385       .  A
C221        H223   1.082       .  S
Cu224       N227   2.062       .  S
Cu225       N235   2.080       .  S
Cu226       N228   2.082       .  S
Cu226       N234   2.084       .  S
N227        N228   1.321       .  A
N227        C231   1.343       .  A
N228        C229   1.347       .  A
C229        C230   1.386       .  A
C229        H232   1.082   1_455  S
C230        C231   1.380       .  A
C231        H233   1.082       .  S
N234        N235   1.325       .  A
N234        C238   1.346       .  A
N235        C236   1.347       .  A
C236        C237   1.380       .  A
C236        H239   1.082       .  S
C237        C238   1.381       .  A
C237        C526   1.440       .  S
C238        H240   1.082   1_455  S
N241        N242   1.325       .  A
N241        C245   1.347       .  A
N241       Cu249   2.088       .  S
N242        C243   1.346       .  A
N242       Cu248   2.076       .  S
C243        C244   1.378       .  A
C243        H246   1.082       .  S
C244        C245   1.381       .  A
C244        C542   1.440       .  S
C245        H247   1.082       .  S
Cu248       N251   2.075   1_545  S
Cu249       N259   2.087   1_545  S
Cu250       N252   2.069       .  S
Cu250       N258   2.068       .  S
N251        N252   1.321       .  A
N251        C255   1.347       .  A
N252        C253   1.343       .  A
C253        C254   1.382       .  A
C253        H256   1.082       .  S
C254        C255   1.384       .  A
C254        C278   1.471       .  S
C255        H257   1.082   1_565  S
N258        N259   1.322       .  A
N258        C262   1.343       .  A
N259        C260   1.349       .  A
C260        C261   1.387       .  A
C260        H263   1.082   1_565  S
C261        C262   1.381       .  A
C261        C292   1.474       .  S
C262        H264   1.082       .  S
N265        N266   1.322       .  A
N265        C269   1.346       .  A
N265       Cu273   2.076       .  S
N266        C267   1.344       .  A
N266       Cu272   2.069       .  S
C267        C268   1.381       .  A
C267        H270   1.082       .  S
C268        C269   1.383       .  A
C269        H271   1.082       .  S
Cu272       N275   2.068       .  S
Cu273       N283   2.077       .  S
Cu274       N276   2.079       .  S
Cu274       N282   2.080       .  S
N275        N276   1.322       .  A
N275        C279   1.343       .  A
N276        C277   1.348       .  A
C277        C278   1.385       .  A
C277        H280   1.082       .  S
C278        C279   1.381       .  A
C279        H281   1.082       .  S
N282        N283   1.324       .  A
N282        C286   1.346       .  A
N283        C284   1.346       .  A
C284        C285   1.379       .  A
C284        H287   1.082       .  S
C285        C286   1.380       .  A
C285        C523   1.439       .  S
C286        H288   1.082       .  S
N289        N290   1.323       .  A
N289        C293   1.348       .  A
N289       Cu297   2.081       .  S
N290        C291   1.344       .  A
N290       Cu296   2.077       .  S
C291        C292   1.383       .  A
C291        H294   1.082       .  S
C292        C293   1.385       .  A
C293        H295   1.082       .  S
Cu296       N299   2.077       .  S
Cu297       N307   2.081       .  S
Cu298       N300   2.082       .  S
Cu298       N306   2.083       .  S
N299        N300   1.322       .  A
N299        C303   1.346       .  A
N300        C301   1.347       .  A
C301        C302   1.385       .  A
C301        H304   1.082   1_455  S
C302        C303   1.384       .  A
C303        H305   1.082       .  S
N306        N307   1.324       .  A
N306        C310   1.346       .  A
N307        C308   1.348       .  A
C308        C309   1.381       .  A
C308        H311   1.082       .  S
C309        C310   1.380       .  A
C309        C521   1.441       .  S
C310        H312   1.082   1_455  S
C313        C314   1.531   1_565  S
C313        C319   1.532       .  S
C313        C317   1.534       .  S
C313        C524   1.470       .  S
C314        H321   1.086       .  S
C314        C315   1.363       .  D
C315        C316   1.542   1_545  S
C315        C525   1.444   1_655  S
C316        C320   1.542       .  S
C316        C318   1.544       .  S
C316        H322   1.111   1_665  S
C317        H323   1.086       .  S
C317        C318   1.367       .  D
C318        C519   1.449       .  S
C319        H324   1.086       .  S
C319        C320   1.364       .  D
C320        C522   1.445   1_655  S
C325        C326   1.533   1_545  S
C325        C331   1.530   1_655  S
C325        C329   1.533       .  S
C325        C517   1.472       .  S
C326        H333   1.086       .  S
C326        C327   1.364       .  D
C327        C328   1.542   1_655  S
C327        C515   1.447       .  S
C328        C332   1.542   1_565  S
C328        C330   1.545   1_455  S
C328        H334   1.111       .  S
C329        H335   1.087       .  S
C329        C330   1.366   1_545  D
C330        C520   1.449       .  S
C331        H336   1.086       .  S
C331        C332   1.363       .  D
C332        C513   1.444       .  S
C337        C338   1.530       .  S
C337        C343   1.532       .  S
C337        C341   1.535       .  S
C337        C528   1.470       .  S
C338        H345   1.086       .  S
C338        C339   1.362       .  D
C339        C340   1.541       .  S
C339        C532   1.441       .  S
C340        C344   1.542       .  S
C340        C342   1.542       .  S
C340        H346   1.111       .  S
C341        H347   1.087       .  S
C341        C342   1.368       .  D
C342        C512   1.449       .  S
C343        H348   1.086       .  S
C343        C344   1.363       .  D
C344        C529   1.445       .  S
C349        C350   1.531       .  S
C349        C355   1.532       .  S
C349        C353   1.532       .  S
C349        C509   1.470       .  S
C350        H357   1.086       .  S
C350        C351   1.364       .  D
C351        C352   1.543       .  S
C351        C507   1.446       .  S
C352        C356   1.541       .  S
C352        C354   1.545       .  S
C352        H358   1.111       .  S
C353        H359   1.086       .  S
C353        C354   1.365       .  D
C354        C511   1.448       .  S
C355        H360   1.086       .  S
C355        C356   1.363       .  D
C356        C505   1.443       .  S
N361        N362   1.323   1_565  A
N361        C365   1.348       .  A
N361       Cu369   2.080       .  S
N362        C363   1.343       .  A
N362       Cu368   2.072       .  S
C363        C364   1.382       .  A
C363        H366   1.082       .  S
C364        C365   1.384   1_545  A
C364        C388   1.472       .  S
C365        H367   1.082       .  S
Cu368       N371   2.072       .  S
Cu369       N379   2.081       .  S
Cu370       N372   2.075       .  S
Cu370       N378   2.076       .  S
N371        N372   1.322   1_545  A
N371        C375   1.345       .  A
N372        C373   1.346   1_565  A
C373        C374   1.384       .  A
C373        H376   1.082   1_545  S
C374        C375   1.383       .  A
C374        C470   1.471       .  S
C375        H377   1.082       .  S
N378        N379   1.324       .  A
N378        C382   1.345       .  A
N379        C380   1.348       .  A
C380        C381   1.381       .  A
C380        H383   1.082       .  S
C381        C382   1.379       .  A
C381        C506   1.439       .  S
C382        H384   1.082       .  S
N385        N386   1.322       .  A
N385        C389   1.348       .  A
N385       Cu393   2.083       .  S
N386        C387   1.343       .  A
N386       Cu392   2.068       .  S
C387        C388   1.381       .  A
C387        H390   1.082       .  S
C388        C389   1.385       .  A
C389        H391   1.082       .  S
Cu392       N395   2.067       .  S
Cu393       N403   2.084       .  S
Cu394       N396   2.080       .  S
Cu394       N402   2.081       .  S
N395        N396   1.321       .  A
N395        C399   1.344       .  A
N396        C397   1.348       .  A
C397        C398   1.385       .  A
C397        H400   1.082       .  S
C398        C399   1.382       .  A
C398        C484   1.472       .  S
C399        H401   1.082       .  S
N402        N403   1.325       .  A
N402        C406   1.345       .  A
N403        C404   1.348       .  A
C404        C405   1.381       .  A
C404        H407   1.082       .  S
C405        C406   1.379       .  A
C405        C514   1.440       .  S
C406        H408   1.082       .  S
N409        N410   1.323       .  A
N409        C413   1.350       .  A
N409       Cu417   2.090   1_655  S
N410        C411   1.344       .  A
N410       Cu416   2.076       .  S
C411        C412   1.383       .  A
C411        H414   1.082       .  S
C412        C413   1.387       .  A
C412        C453   1.477       .  S
C413        H415   1.082   1_655  S
Cu416       N419   2.075       .  S
Cu417       N427   2.091       .  S
Cu418       N420   2.080   1_455  S
Cu418       N426   2.081       .  S
N419        N420   1.322       .  A
N419        C423   1.345       .  A
N420        C421   1.348       .  A
C421        C422   1.385       .  A
C421        H424   1.082   1_655  S
C422        C423   1.383       .  A
C422        C460   1.473       .  S
C423        H425   1.082       .  S
N426        N427   1.325       .  A
N426        C430   1.346       .  A
N427        C428   1.349       .  A
C428        C429   1.382       .  A
C428        H431   1.082       .  S
C429        C430   1.379       .  A
C429        C508   1.442       .  S
C430        H432   1.082       .  S
N433        N434   1.325       .  A
N433        C437   1.350       .  A
N433       Cu441   2.091       .  S
N434        C435   1.346       .  A
N434       Cu440   2.081       .  S
C435        C436   1.379       .  A
C435        H438   1.082       .  S
C436        C437   1.383       .  A
C436        C516   1.443       .  S
C437        H439   1.082       .  S
Cu440       N443   2.080       .  S
Cu441       N451   2.091       .  S
Cu442       N444   2.077       .  S
Cu442       N450   2.078       .  S
N443        N444   1.322       .  A
N443        C447   1.347       .  A
N444        C445   1.346       .  A
C445        C446   1.383       .  A
C445        H448   1.082       .  S
C446        C447   1.385       .  A
C446        C494   1.474       .  S
C447        H449   1.082       .  S
N450        N451   1.323       .  A
N450        C454   1.344       .  A
N451        C452   1.350       .  A
C452        C453   1.387       .  A
C452        H455   1.082       .  S
C453        C454   1.383       .  A
C454        H456   1.082       .  S
N457        N458   1.323       .  A
N457        C461   1.348       .  A
N457       Cu465   2.084       .  S
N458        C459   1.345       .  A
N458       Cu464   2.076       .  S
C459        C460   1.382       .  A
C459        H462   1.082       .  S
C460        C461   1.385       .  A
C461        H463   1.082       .  S
Cu464       N467   2.076       .  S
Cu465       N475   2.084       .  S
Cu466       N468   2.074       .  S
Cu466       N474   2.075       .  S
N467        N468   1.322       .  A
N467        C471   1.345       .  A
N468        C469   1.346       .  A
C469        C470   1.383       .  A
C469        H472   1.082       .  S
C470        C471   1.383       .  A
C471        H473   1.082       .  S
N474        N475   1.324       .  A
N474        C478   1.345       .  A
N475        C476   1.348       .  A
C476        C477   1.382       .  A
C476        H479   1.082       .  S
C477        C478   1.379       .  A
C477        C518   1.440       .  S
C478        H480   1.082       .  S
N481        N482   1.323       .  A
N481        C485   1.347       .  A
N481       Cu489   2.078       .  S
N482        C483   1.345       .  A
N482       Cu488   2.079       .  S
C483        C484   1.383       .  A
C483        H486   1.082       .  S
C484        C485   1.383       .  A
C485        H487   1.082       .  S
Cu488       N491   2.079       .  S
Cu489       N499   2.078       .  S
Cu490       N492   2.079       .  S
Cu490       N498   2.079       .  S
N491        N492   1.322       .  A
N491        C495   1.346       .  A
N492        C493   1.347       .  A
C493        C494   1.384       .  A
C493        H496   1.082       .  S
C494        C495   1.384       .  A
C495        H497   1.082       .  S
N498        N499   1.324       .  A
N498        C502   1.346       .  A
N499        C500   1.347       .  A
C500        C501   1.380       .  A
C500        H503   1.082       .  S
C501        C502   1.380       .  A
C501        C510   1.439       .  S
C502        H504   1.082       .  S
C505        C506   1.207       .  T
C507        C508   1.209       .  T
C509        C510   1.207       .  T
C511        C512   1.210       .  T
C513        C514   1.208       .  T
C515        C516   1.209       .  T
C517        C518   1.208       .  T
C519        C520   1.211   1_554  T
C521        C522   1.208       .  T
C523        C524   1.207       .  T
C525        C526   1.208       .  T
C527        C528   1.207       .  T
C529        C530   1.208       .  T
C531        C532   1.206       .  T
C533        C534   1.205       .  T
C535        C536   1.208       .  T
C537        C538   1.207       .  T
C539        C540   1.206       .  T
C541        C542   1.207       .  T
C543        C544   1.206       .  T
C545        C546   1.209       .  T
