geometry optimzed in LAMMPS
_audit_creation_date              2020-11-30 
_audit_creation_method            'lammps2cif' 
_symmetry_space_group_name_H-M    'P1' 
_symmetry_Int_Tables_number       1 
_symmetry_cell_setting            triclinic 
loop_ 
_symmetry_equiv_pos_as_xyz 
  x,y,z 
_cell_length_a                    34.92206584 
_cell_length_b                    34.9425280712605 
_cell_length_c                    56.26568719249303 
_cell_angle_alpha                 89.44492453265956 
_cell_angle_beta                  90.52494269565918 
_cell_angle_gamma                 119.75620063549337 
loop_ 
_atom_site_label 
_atom_site_type_symbol 
_atom_site_fract_x 
_atom_site_fract_y 
_atom_site_fract_z 
_atom_site_charge 
C1          C  0.66559447  0.31227059  0.29502563     0.87500
C2          C  0.71168510  0.33490506  0.28376242    -0.52700
C3          C  0.71100585  0.33413934  0.25954695     0.10400
C4          C  0.66461444  0.31083636  0.24858181     0.21400
C5          C  0.64208345  0.33551623  0.28343889    -0.53500
C6          C  0.64184355  0.33459506  0.25916935     0.10500
C7          C  0.64207859  0.26563031  0.28446696    -0.53000
C8          C  0.64163261  0.26500404  0.26024788     0.11100
H9          H  0.74211088  0.35019391  0.29404409     0.15600
H10         H  0.66429619  0.31021626  0.22882754     0.01400
H11         H  0.62712540  0.35145190  0.29295509     0.15900
H12         H  0.62734813  0.23576949  0.29522239     0.15700
C13         C  0.65416264  0.32663755  0.36418517     0.87500
C14         C  0.67701532  0.30272420  0.37575643    -0.52700
C15         C  0.67648414  0.30287595  0.40002261     0.10400
C16         C  0.65342720  0.32629582  0.41063207     0.21400
C17         C  0.60767437  0.30395014  0.37496666    -0.53500
C18         C  0.60739309  0.30379878  0.39918080     0.10500
C19         C  0.67768062  0.37287027  0.37525787    -0.53000
C20         C  0.67730808  0.37248743  0.39948676     0.11100
H21         H  0.69278790  0.28754313  0.36622113     0.15600
H22         H  0.65312026  0.32623636  0.43038986     0.01400
H23         H  0.57764614  0.28944878  0.36435104     0.15900
H24         H  0.69339469  0.40313413  0.36485593     0.15700
N25         N  0.23376470  0.90310514  0.51365268    -0.26300
N26         N  0.19586426  0.90161956  0.50907573    -0.34100
C27         C  0.20391049  0.94109507  0.50074984     0.02100
C28         C  0.24907461  0.96864780  0.49970166     0.08100
C29         C  0.26708785  0.94351216  0.50795363    -0.05000
H30         H  0.17869504  0.94890029  0.49543546     0.08800
H31         H  0.30173414  0.95401687  0.51007951     0.10000
Cu32       Cu  0.13511593  0.84487873  0.51243135     0.44200
Cu33       Cu  0.23695233  0.84963679  0.52795347     0.42000
Cu34       Cu  0.13346085  0.74364038  0.52828466     0.43900
N35         N  0.07920057  0.78321761  0.51059466    -0.33700
N36         N  0.07860576  0.74575991  0.51524930    -0.27900
C37         C  0.03802811  0.71190937  0.51034872    -0.04000
C38         C  0.01197512  0.72915719  0.50248196     0.08200
C39         C  0.03910005  0.77435043  0.50295709     0.02000
H40         H  0.02817862  0.67744424  0.51254475     0.09600
H41         H  0.03065703  0.79907386  0.49757402     0.08700
N42         N  0.19308929  0.75301551  0.54190198    -0.35100
N43         N  0.23037156  0.79128226  0.54184765    -0.27300
C44         C  0.26216000  0.78599358  0.55245834    -0.02500
C45         C  0.24394861  0.74249828  0.55945819     0.06100
C46         C  0.20025327  0.72245471  0.55255560     0.04200
H47         H  0.29587815  0.81201287  0.55506445     0.09300
H48         H  0.17535723  0.68833243  0.55527841     0.08100
N49         N  0.89915580  0.65433725  0.48284254    -0.26300
N50         N  0.89745420  0.69074039  0.48671470    -0.34100
C51         C  0.93725571  0.72259066  0.49403091     0.02100
C52         C  0.96532416  0.70541350  0.49514965     0.08100
C53         C  0.94015849  0.66200576  0.48797168    -0.05000
H54         H  0.94488948  0.75560932  0.49869915     0.08800
H55         H  0.95091004  0.63796254  0.48635771     0.10000
Cu56       Cu  0.84084994  0.69561478  0.48372532     0.44200
Cu57       Cu  0.84544488  0.59666508  0.47023712     0.42000
Cu58       Cu  0.74116588  0.59816867  0.46781443     0.43900
N59         N  0.77979454  0.69193981  0.48318622    -0.33700
N60         N  0.74261440  0.65542405  0.47829594    -0.27900
C61         C  0.70858135  0.66289113  0.48081390    -0.04000
C62         C  0.72540558  0.70639038  0.48735097     0.08200
C63         C  0.77059782  0.72385723  0.48861750     0.02000
H64         H  0.67431169  0.63862561  0.47788224     0.09600
H65         H  0.79495372  0.75702969  0.49365727     0.08700
N66         N  0.74923327  0.54700276  0.45555310    -0.35100
N67         N  0.78675904  0.54622926  0.45627246    -0.27300
C68         C  0.78055278  0.50911625  0.44574010    -0.02500
C69         C  0.73722069  0.48578236  0.43817878     0.06100
C70         C  0.71829208  0.51055575  0.44460207     0.04200
H71         H  0.80593641  0.50033138  0.44332658     0.09300
H72         H  0.68481197  0.50323537  0.44110949     0.08100
N73         N  0.32251538  0.08125787  0.47910089    -0.26300
N74         N  0.28724966  0.08357860  0.48516735    -0.34100
C75         C  0.25587943  0.04388636  0.49293889     0.02100
C76         C  0.27228078  0.01519731  0.49212581     0.08100
C77         C  0.31471055  0.03992449  0.48331418    -0.05000
H78         H  0.22394467  0.03682928  0.49943024     0.08800
H79         H  0.33803353  0.02870270  0.48011724     0.10000
Cu80       Cu  0.28436380  0.14128722  0.48485465     0.44200
Cu81       Cu  0.37883857  0.13543066  0.46544843     0.42000
Cu82       Cu  0.38082627  0.24203927  0.46881044     0.43900
N83         N  0.28837236  0.20221847  0.48712443    -0.33700
N84         N  0.32438645  0.23982211  0.48213566    -0.27900
C85         C  0.31680757  0.27335390  0.48648405    -0.04000
C86         C  0.27378277  0.25572317  0.49433656     0.08200
C87         C  0.25678379  0.21060437  0.49446034     0.02000
H88         H  0.34055410  0.30784255  0.48377534     0.09600
H89         H  0.22401870  0.18563997  0.49980274     0.08700
N90         N  0.43058662  0.23354183  0.45414581    -0.35100
N91         N  0.42983111  0.19531759  0.45285114    -0.27300
C92         C  0.46665965  0.20169466  0.44187291    -0.02500
C93         C  0.49153838  0.24580418  0.43606364     0.06100
C94         C  0.46787551  0.26509795  0.44400870     0.04200
H95         H  0.47447750  0.17599383  0.43820324     0.09300
H96         H  0.47678616  0.29940935  0.44234167     0.08100
N97         N  0.07760396  0.33026675  0.51616109    -0.26300
N98         N  0.07858207  0.29368410  0.51171341    -0.34100
C99         C  0.03796486  0.26200283  0.50532820     0.02100
C100        C  0.01015722  0.27958051  0.50550696     0.08100
C101        C  0.03634721  0.32296478  0.51244108    -0.05000
H102        H  0.02961657  0.22894925  0.50027131     0.08800
H103        H  0.02624403  0.34740006  0.51460513     0.10000
Cu104      Cu  0.13577886  0.28941604  0.51232932     0.44200
Cu105      Cu  0.13300560  0.38805595  0.52681014     0.42000
Cu106      Cu  0.23839330  0.38905362  0.52280539     0.43900
N107        N  0.19698187  0.29383418  0.50897938    -0.33700
N108        N  0.23484933  0.33081887  0.51178773    -0.27900
C109        C  0.26821203  0.32325808  0.50689368    -0.04000
C110        C  0.25033061  0.27928097  0.50096135     0.08200
C111        C  0.20516376  0.26164513  0.50254106     0.02000
H112        H  0.30281672  0.34778882  0.50784323     0.09600
H113        H  0.17999987  0.22806793  0.49881799     0.08700
N114        N  0.23145995  0.44070514  0.53583922    -0.35100
N115        N  0.19340170  0.44022936  0.53736220    -0.27300
C116        C  0.20026472  0.47755168  0.54786321    -0.02500
C117        C  0.24458702  0.50249742  0.55310523     0.06100
C118        C  0.26348904  0.47836928  0.54534447     0.04200
H119        H  0.17463714  0.48523144  0.55202722     0.09300
H120        H  0.29767146  0.48680772  0.54715747     0.08100
N121        N  0.74072788  0.08517116  0.48328447    -0.26300
N122        N  0.77857222  0.08604665  0.48701828    -0.34100
C123        C  0.77052336  0.04511545  0.49214961     0.02100
C124        C  0.72542795  0.01727026  0.49193144     0.08100
C125        C  0.70741871  0.04364610  0.48630378    -0.05000
H126        H  0.79564028  0.03652496  0.49632591     0.08800
H127        H  0.67280113  0.03340584  0.48428775     0.10000
Cu128      Cu  0.83920064  0.14310753  0.48695848     0.44200
Cu129      Cu  0.73714559  0.14052479  0.47344774     0.42000
Cu130      Cu  0.84098021  0.24568274  0.47655636     0.43900
N131        N  0.89523680  0.20395230  0.49084971    -0.33700
N132        N  0.89594854  0.24191879  0.48811178    -0.27900
C133        C  0.93688738  0.27497645  0.49314438    -0.04000
C134        C  0.96301230  0.25669249  0.49909787     0.08200
C135        C  0.93553346  0.21168058  0.49739223     0.02000
H136        H  0.94702782  0.30966192  0.49215077     0.09600
H137        H  0.94399454  0.18627657  0.50094851     0.08700
N138        N  0.78247593  0.23800256  0.46190267    -0.35100
N139        N  0.74507660  0.19992438  0.46093179    -0.27300
C140        C  0.71477088  0.20557458  0.44891388    -0.02500
C141        C  0.73397125  0.24912817  0.44200383     0.06100
C142        C  0.77680109  0.26888835  0.45045892     0.04200
H143        H  0.68172692  0.17949853  0.44478356     0.09300
H144        H  0.80238541  0.30275941  0.44779190     0.08100
N145        N  0.65153058  0.90245429  0.50756870    -0.26300
N146        N  0.68747927  0.90116571  0.50184211    -0.34100
C147        C  0.71912681  0.94173426  0.49545511     0.02100
C148        C  0.70207355  0.96979537  0.49695994     0.08100
C149        C  0.65910947  0.94390469  0.50462128    -0.05000
H150        H  0.75189634  0.94999372  0.48980843     0.08800
H151        H  0.63542827  0.95450416  0.50822847     0.10000
Cu152      Cu  0.69108109  0.84401930  0.50165585     0.44200
Cu153      Cu  0.59502111  0.84770490  0.51995272     0.42000
Cu154      Cu  0.59263659  0.74195896  0.51654447     0.43900
N155        N  0.68593254  0.78280476  0.49897004    -0.33700
N156        N  0.64960567  0.74509683  0.50341049    -0.27900
C157        C  0.65749153  0.71169173  0.49936385    -0.04000
C158        C  0.70099257  0.72955792  0.49236317     0.08200
C159        C  0.71795850  0.77460061  0.49232712     0.02000
H160        H  0.63383867  0.67717660  0.50210085     0.09600
H161        H  0.75120629  0.79968698  0.48784920     0.08700
N162        N  0.54323176  0.75035982  0.53171978    -0.35100
N163        N  0.54425412  0.78868372  0.53294691    -0.27300
C164        C  0.50856780  0.78313306  0.54480883    -0.02500
C165        C  0.48409900  0.73937121  0.55128731     0.06100
C166        C  0.50680835  0.71943096  0.54280605     0.04200
H167        H  0.50160232  0.80927030  0.54889148     0.09300
H168        H  0.49815390  0.68527745  0.54501603     0.08100
N169        N  0.42498913  0.40285466  0.17589293    -0.26300
N170        N  0.42667860  0.44056578  0.17055318    -0.34100
C171        C  0.38619838  0.43265112  0.16428737     0.02100
C172        C  0.35778942  0.38771201  0.16543672     0.08100
C173        C  0.38339140  0.36970495  0.17278562    -0.05000
H174        H  0.37828744  0.45770159  0.15879734     0.08800
H175        H  0.37254399  0.33521024  0.17593089     0.10000
Cu176      Cu  0.48447159  0.50050900  0.17044636     0.44200
Cu177      Cu  0.47963511  0.39950812  0.18772744     0.42000
Cu178      Cu  0.58653217  0.50155907  0.18412324     0.43900
N179        N  0.54603777  0.55601505  0.16782166    -0.33700
N180        N  0.58373455  0.55664329  0.17177961    -0.27900
C181        C  0.61726380  0.59768735  0.16738859    -0.04000
C182        C  0.59950399  0.62390996  0.16062422     0.08200
C183        C  0.55438506  0.59641172  0.16116337     0.02000
H184        H  0.65184465  0.60784459  0.16941863     0.09600
H185        H  0.52931650  0.60495444  0.15676237     0.08700
N186        N  0.57731195  0.44249378  0.19880988    -0.35100
N187        N  0.53860888  0.40583161  0.20013045    -0.27300
C188        C  0.54360643  0.37481855  0.21183672    -0.02500
C189        C  0.58739863  0.39278879  0.21814985     0.06100
C190        C  0.60792664  0.43561974  0.20968267     0.04200
H191        H  0.51704187  0.34205769  0.21602456     0.09300
H192        H  0.64226075  0.46037801  0.21187804     0.08100
N193        N  0.99119168  0.55663206  0.17672661    -0.26300
N194        N  0.02793958  0.55554930  0.17291894    -0.34100
C195        C  0.05986950  0.59582963  0.16635134     0.02100
C196        C  0.04238381  0.62362388  0.16566337     0.08100
C197        C  0.99869205  0.59777712  0.17229195    -0.05000
H198        H  0.09313955  0.60397387  0.16185051     0.08800
H199        H  0.97437533  0.60815261  0.17401867     0.10000
Cu200      Cu  0.03295640  0.49912405  0.17482821     0.44200
Cu201      Cu  0.93366956  0.50173052  0.18846458     0.42000
Cu202      Cu  0.93581484  0.39761251  0.18873402     0.43900
N203        N  0.02989271  0.43862347  0.17324501    -0.33700
N204        N  0.99358369  0.40082024  0.17743446    -0.27900
C205        C  0.00175175  0.36751349  0.17385935    -0.04000
C206        C  0.04544420  0.38547399  0.16732151     0.08200
C207        C  0.06230428  0.43057043  0.16715044     0.02000
H208        H  0.97787991  0.33294603  0.17619714     0.09600
H209        H  0.09550370  0.45571289  0.16261261     0.08700
N210        N  0.88477165  0.40489964  0.20215480    -0.35100
N211        N  0.88387647  0.44235499  0.20209864    -0.27300
C212        C  0.84708356  0.43577153  0.21317979    -0.02500
C213        C  0.82402333  0.39229512  0.22043953     0.06100
C214        C  0.84865172  0.37360599  0.21325577     0.04200
H215        H  0.83832328  0.46101973  0.21615671     0.09300
H216        H  0.84143321  0.34005050  0.21629090     0.08100
N217        N  0.24312143  0.31354933  0.14943249    -0.26300
N218        N  0.24211204  0.35013392  0.15378490    -0.34100
C219        C  0.28269485  0.38201000  0.16001512     0.02100
C220        C  0.31045805  0.36446319  0.15987701     0.08100
C221        C  0.28436977  0.32096363  0.15317258    -0.05000
H222        H  0.29112300  0.41524278  0.16472774     0.08800
H223        H  0.29470025  0.29674411  0.15078481     0.10000
Cu224      Cu  0.18514233  0.35416773  0.15273905     0.44200
Cu225      Cu  0.18836460  0.25619844  0.13777752     0.42000
Cu226      Cu  0.08280149  0.25278754  0.14099532     0.43900
N227        N  0.12342804  0.34808046  0.15520101    -0.33700
N228        N  0.08591440  0.31084923  0.15202958    -0.27900
C229        C  0.05213006  0.31812870  0.15609694    -0.04000
C230        C  0.06944593  0.36209848  0.16184034     0.08200
C231        C  0.11463972  0.38006592  0.16106713     0.02000
H232        H  0.01764110  0.29348662  0.15453919     0.09600
H233        H  0.13941835  0.41379612  0.16477560     0.08700
N234        N  0.09097516  0.20271905  0.12667831    -0.35100
N235        N  0.12953078  0.20424807  0.12532081    -0.27300
C236        C  0.12423970  0.16857104  0.11357269    -0.02500
C237        C  0.08036192  0.14355449  0.10732765     0.06100
C238        C  0.06011830  0.16595666  0.11584118     0.04200
H239        H  0.15063984  0.16211155  0.10927723     0.09300
H240        H  0.02588112  0.15706678  0.11362054     0.08100
N241        N  0.41911723  0.97870612  0.18191639    -0.26300
N242        N  0.42110028  0.94306191  0.17633974    -0.34100
C243        C  0.38145862  0.91203387  0.16830946     0.02100
C244        C  0.35329958  0.92912263  0.16847848     0.08100
C245        C  0.37817973  0.97152004  0.17715343    -0.05000
H246        H  0.37409823  0.87986895  0.16209836     0.08800
H247        H  0.36733405  0.99524666  0.17991053     0.10000
Cu248      Cu  0.47844634  0.93930754  0.17738716     0.44200
Cu249      Cu  0.47284875  0.03501730  0.19554845     0.42000
Cu250      Cu  0.57911435  0.03742385  0.19183638     0.43900
N251        N  0.53991891  0.94447414  0.17428454    -0.33700
N252        N  0.57736593  0.98111798  0.17859854    -0.27900
C253        C  0.61126973  0.97445405  0.17352530    -0.04000
C254        C  0.59412758  0.93137994  0.16589849     0.08200
C255        C  0.54884089  0.91339788  0.16667134     0.02000
H256        H  0.64572185  0.99890133  0.17553991     0.09600
H257        H  0.52411241  0.88034174  0.16167020     0.08700
N258        N  0.57084004  0.08755224  0.20620207    -0.35100
N259        N  0.53250843  0.08654903  0.20766552    -0.27300
C260        C  0.53879904  0.12352500  0.21837887    -0.02500
C261        C  0.58302722  0.14880917  0.22383472     0.06100
C262        C  0.60245094  0.12521611  0.21595754     0.04200
H263        H  0.51296852  0.13113726  0.22213039     0.09300
H264        H  0.63686921  0.13439589  0.21746083     0.08100
N265        N  0.67286677  0.73848457  0.14335517    -0.26300
N266        N  0.63619053  0.73924448  0.14793023    -0.34100
C267        C  0.60482120  0.69872507  0.15461327     0.02100
C268        C  0.62265141  0.67116165  0.15451934     0.08100
C269        C  0.66593706  0.69741630  0.14734276    -0.05000
H270        H  0.57167361  0.69019980  0.15963742     0.08800
H271        H  0.69036047  0.68735762  0.14491407     0.10000
Cu272      Cu  0.63098975  0.79586075  0.14678051     0.44200
Cu273      Cu  0.72959316  0.79382546  0.13143166     0.42000
Cu274      Cu  0.72819878  0.89867405  0.13430490     0.43900
N275        N  0.63392672  0.85634636  0.15014477    -0.33700
N276        N  0.67020883  0.89455395  0.14663918    -0.27900
C277        C  0.66197966  0.92739238  0.15180471    -0.04000
C278        C  0.61827699  0.90876996  0.15864846     0.08200
C279        C  0.60154898  0.86373007  0.15731046     0.02000
H280        H  0.68584741  0.96214754  0.15043003     0.09600
H281        H  0.56848067  0.83811582  0.16170290     0.08700
N282        N  0.77915717  0.89169429  0.11992438    -0.35100
N283        N  0.77952089  0.85400435  0.11887949    -0.27300
C284        C  0.81645326  0.86099222  0.10780957    -0.02500
C285        C  0.84028961  0.90497964  0.10166753     0.06100
C286        C  0.81591036  0.92357767  0.10951851     0.04200
H287        H  0.82494228  0.83573852  0.10422603     0.09300
H288        H  0.82389864  0.95758671  0.10753178     0.08100
N289        N  0.24167472  0.89210982  0.14683407    -0.26300
N290        N  0.23930077  0.85403318  0.15202035    -0.34100
C291        C  0.27860489  0.86150617  0.16029860     0.02100
C292        C  0.30694025  0.90650511  0.16070620     0.08100
C293        C  0.28250408  0.92504373  0.15211445    -0.05000
H294        H  0.28567933  0.83605281  0.16614656     0.08800
H295        H  0.29367622  0.95974522  0.14960003     0.10000
Cu296      Cu  0.18169631  0.79398406  0.14971164     0.44200
Cu297      Cu  0.18858993  0.89583607  0.13257914     0.42000
Cu298      Cu  0.08131541  0.79201570  0.13288066     0.43900
N299        N  0.12020072  0.73804274  0.15158578    -0.33700
N300        N  0.08282065  0.73721021  0.14635645    -0.27900
C301        C  0.04891548  0.69647054  0.15085877    -0.04000
C302        C  0.06611182  0.67058390  0.15906226     0.08200
C303        C  0.11129747  0.69796514  0.15922758     0.02000
H304        H  0.01450915  0.68632223  0.14799962     0.09600
H305        H  0.13597972  0.68959172  0.16482365     0.08700
N306        N  0.09138921  0.85200522  0.11956341    -0.35100
N307        N  0.12985011  0.88910361  0.11936252    -0.27300
C308        C  0.12456840  0.92105213  0.10900511    -0.02500
C309        C  0.08089010  0.90317164  0.10249430     0.06100
C310        C  0.06071796  0.85949580  0.10934748     0.04200
H311        H  0.15073958  0.95462439  0.10619110     0.09300
H312        H  0.02645376  0.83478894  0.10682235     0.08100
C313        C  0.00329425  0.98915199  0.02991028     0.87500
C314        C  0.02608324  0.96524220  0.04099791    -0.52700
C315        C  0.02512600  0.96393125  0.06519804     0.10400
C316        C  0.00157468  0.98646944  0.07633046     0.21400
C317        C  0.95655498  0.96563617  0.04039135    -0.53500
C318        C  0.95580596  0.96436836  0.06460532     0.10500
C319        C  0.02625106  0.03514553  0.04169991    -0.53000
C320        C  0.02512837  0.03328939  0.06594984     0.11100
H321        H  0.04140687  0.95046515  0.03060033     0.15600
H322        H  0.00080682  0.98522221  0.09608094     0.01400
H323        H  0.92673809  0.95114395  0.02959538     0.15900
H324        H  0.04201663  0.06641461  0.03231953     0.15700
C325        C  0.01870818  0.01790159  0.96095873     0.87500
C326        C  0.06550351  0.04127907  0.95055215    -0.52700
C327        C  0.06638005  0.04228844  0.92633723     0.10400
C328        C  0.02069281  0.01998928  0.91453001     0.21400
C329        C  0.99603680  0.04173629  0.94962998    -0.53500
C330        C  0.99717332  0.04274110  0.92542484     0.10500
C331        C  0.99577693  0.97177469  0.94931647    -0.53000
C332        C  0.99701861  0.97328955  0.92507764     0.11100
H333        H  0.09526204  0.05602261  0.96139419     0.15600
H334        H  0.02156969  0.02100055  0.89477828     0.01400
H335        H  0.98071856  0.05671389  0.95986164     0.15900
H336        H  0.97984136  0.94060002  0.95877063     0.15700
C337        C  0.33006664  0.65848233  0.62853029     0.87500
C338        C  0.30639250  0.68290730  0.61924182    -0.52700
C339        C  0.30472891  0.68460288  0.59504294     0.10400
C340        C  0.32657968  0.66181610  0.58228275     0.21400
C341        C  0.30557116  0.61291826  0.61672585    -0.53500
C342        C  0.30390142  0.61487826  0.59255027     0.10500
C343        C  0.37564914  0.68176385  0.61664732    -0.53000
C344        C  0.37359136  0.68345859  0.59246373     0.11100
H345        H  0.29214880  0.69730703  0.63074349     0.15600
H346        H  0.32510801  0.66320044  0.56256591     0.01400
H347        H  0.29109193  0.58197841  0.62654409     0.15900
H348        H  0.40656738  0.69538551  0.62644189     0.15700
C349        C  0.35172812  0.69036923  0.69561614     0.87500
C350        C  0.37595617  0.73601535  0.70735364    -0.52700
C351        C  0.37571179  0.73432789  0.73157595     0.10400
C352        C  0.35144011  0.68741348  0.74195168     0.21400
C353        C  0.37392499  0.66532357  0.70608861    -0.53500
C354        C  0.37359047  0.66382017  0.73034277     0.10500
C355        C  0.30523713  0.66781600  0.70643309    -0.53000
C356        C  0.30527272  0.66620824  0.73065388     0.11100
H357        H  0.39174279  0.76684869  0.69743576     0.15600
H358        H  0.35129534  0.68613959  0.76170211     0.01400
H359        H  0.38858319  0.65034284  0.69533298     0.15900
H360        H  0.27514224  0.65423216  0.69589348     0.15700
N361        N  0.43830374  0.01569608  0.81441612    -0.26300
N362        N  0.47599355  0.05185661  0.81910842    -0.34100
C363        C  0.46767670  0.08363330  0.82608608     0.02100
C364        C  0.42257311  0.06664425  0.82605391     0.08100
C365        C  0.40480335  0.02341652  0.81863210    -0.05000
H366        H  0.49269328  0.11651587  0.83117931     0.08800
H367        H  0.37026303  0.99963415  0.81611355     0.10000
Cu368      Cu  0.53719224  0.05633429  0.81735143     0.44200
Cu369      Cu  0.43551399  0.95860796  0.80179961     0.42000
Cu370      Cu  0.54123669  0.95908708  0.80249244     0.43900
N371        N  0.59441691  0.05263247  0.81918691    -0.33700
N372        N  0.59595046  0.01633581  0.81478792    -0.27900
C373        C  0.63728668  0.02413186  0.81897515    -0.04000
C374        C  0.66285372  0.06758069  0.82606673     0.08200
C375        C  0.63462016  0.08460482  0.82592943     0.02000
H376        H  0.64804916  0.00024310  0.81665765     0.09600
H377        H  0.64249528  0.11763081  0.83076536     0.08700
N378        N  0.48239874  0.90831970  0.78878063    -0.35100
N379        N  0.44442067  0.90825247  0.78845101    -0.27300
C380        C  0.41376351  0.87148471  0.77752760    -0.02500
C381        C  0.43336816  0.84741114  0.77077564     0.06100
C382        C  0.47677219  0.87154664  0.77809145     0.04200
H383        H  0.37993211  0.86332480  0.77439146     0.09300
H384        H  0.50259975  0.86346406  0.77546302     0.08100
N385        N  0.34882617  0.10691656  0.84385668    -0.26300
N386        N  0.38526849  0.14440379  0.83925381    -0.34100
C387        C  0.41681994  0.13564019  0.83236202     0.02100
C388        C  0.39929290  0.09045312  0.83233229     0.08100
C389        C  0.35605873  0.07313594  0.83965362    -0.05000
H390        H  0.44988533  0.16038524  0.82734464     0.08800
H391        H  0.33192509  0.03869155  0.84213260     0.10000
Cu392      Cu  0.39001924  0.20575670  0.84105783     0.44200
Cu393      Cu  0.29212471  0.10463184  0.85654961     0.42000
Cu394      Cu  0.29319013  0.20996041  0.85795817     0.43900
N395        N  0.38600217  0.26289064  0.83996342    -0.33700
N396        N  0.34985286  0.26429756  0.84507515    -0.27900
C397        C  0.35728400  0.30553429  0.84119975    -0.04000
C398        C  0.40036121  0.33123762  0.83360216     0.08200
C399        C  0.41759451  0.30320071  0.83309476     0.02000
H400        H  0.33339620  0.31613642  0.84408953     0.09600
H401        H  0.45045047  0.31127284  0.82771455     0.08700
N402        N  0.24280031  0.15113839  0.87166497    -0.35100
N403        N  0.24234890  0.11304082  0.87101495    -0.27300
C404        C  0.20558721  0.08192751  0.88173571    -0.02500
C405        C  0.18199803  0.10144217  0.88942535     0.06100
C406        C  0.20633204  0.14521377  0.88285344     0.04200
H407        H  0.19698645  0.04778291  0.88396161     0.09300
H408        H  0.19838398  0.17095072  0.88610440     0.08100
N409        N  0.02334355  0.60113578  0.81383248    -0.26300
N410        N  0.98672718  0.56347077  0.81782218    -0.34100
C411        C  0.95463192  0.57187106  0.82412987     0.02100
C412        C  0.97203064  0.61703080  0.82438789     0.08100
C413        C  0.01568952  0.63466451  0.81784389    -0.05000
H414        H  0.92131444  0.54692050  0.82859856     0.08800
H415        H  0.03987423  0.66920249  0.81574922     0.10000
Cu416      Cu  0.98280726  0.50260745  0.81604912     0.44200
Cu417      Cu  0.08096156  0.60421723  0.80209356     0.42000
Cu418      Cu  0.08283527  0.50059032  0.80307472     0.43900
N419        N  0.98818352  0.44641579  0.81809695    -0.33700
N420        N  0.02515541  0.44563292  0.81453260    -0.27900
C421        C  0.01770209  0.40444361  0.81866158    -0.04000
C422        C  0.97382584  0.37824593  0.82483903     0.08200
C423        C  0.95616999  0.40588580  0.82424716     0.02000
H424        H  0.04215516  0.39423953  0.81692950     0.09600
H425        H  0.92267402  0.39741008  0.82840015     0.08700
N426        N  0.13248520  0.55914848  0.78866228    -0.35100
N427        N  0.13170135  0.59664899  0.78827127    -0.27300
C428        C  0.16751816  0.62740801  0.77669524    -0.02500
C429        C  0.19180830  0.60828917  0.76954257     0.06100
C430        C  0.16885264  0.56511671  0.77733554     0.04200
H431        H  0.17483573  0.66091652  0.77338480     0.09300
H432        H  0.17743472  0.53967297  0.77460864     0.08100
N433        N  0.77687832  0.69394323  0.84096384    -0.26300
N434        N  0.77796041  0.65745764  0.83637883    -0.34100
C435        C  0.73729365  0.62541814  0.83045084     0.02100
C436        C  0.70926876  0.64261433  0.83103382     0.08100
C437        C  0.73536546  0.68619752  0.83767774    -0.05000
H438        H  0.72893912  0.59221285  0.82572796     0.08800
H439        H  0.72484344  0.71018818  0.84038991     0.10000
Cu440      Cu  0.83458706  0.65275317  0.83723588     0.44200
Cu441      Cu  0.83188629  0.75125216  0.85276555     0.42000
Cu442      Cu  0.93610155  0.74939338  0.85364139     0.43900
N443        N  0.89528673  0.65619191  0.83617087    -0.33700
N444        N  0.93295799  0.69212584  0.84117930    -0.27900
C445        C  0.96634445  0.68404358  0.83754276    -0.04000
C446        C  0.94854718  0.64080091  0.83020436     0.08200
C447        C  0.90348935  0.62412057  0.82959583     0.02000
H448        H  0.00085342  0.70761846  0.84041611     0.09600
H449        H  0.87848825  0.59131253  0.82438979     0.08700
N450        N  0.92844635  0.80040613  0.86704452    -0.35100
N451        N  0.89089511  0.80116160  0.86666693    -0.27300
C452        C  0.89704932  0.83788718  0.87762214    -0.02500
C453        C  0.94037384  0.86113894  0.88515279     0.06100
C454        C  0.95939684  0.83661803  0.87824458     0.04200
H455        H  0.87158787  0.84644750  0.88035584     0.09300
H456        H  0.99294640  0.84398715  0.88154173     0.08100
N457        N  0.77755748  0.10774070  0.84315006    -0.26300
N458        N  0.77832307  0.14530072  0.83861208    -0.34100
C459        C  0.73769623  0.13664343  0.83207246     0.02100
C460        C  0.71011967  0.09144288  0.83220112     0.08100
C461        C  0.73645291  0.07405115  0.83926397    -0.05000
H462        H  0.72910979  0.16144415  0.82709628     0.08800
H463        H  0.72641528  0.03958537  0.84168602     0.10000
Cu464      Cu  0.83523302  0.20645503  0.83983063     0.44200
Cu465      Cu  0.83271725  0.10528587  0.85508923     0.42000
Cu466      Cu  0.93734984  0.20998972  0.85518111     0.43900
N467        N  0.89652253  0.26305798  0.83776321    -0.33700
N468        N  0.93422088  0.26414897  0.84243314    -0.27900
C469        C  0.96780467  0.30513305  0.83823758    -0.04000
C470        C  0.95019751  0.33104381  0.83083209     0.08200
C471        C  0.90500911  0.30338245  0.83078541     0.02000
H472        H  0.00231656  0.31543166  0.84083777     0.09600
H473        H  0.88007384  0.31177884  0.82578523     0.02100
N474        N  0.92951887  0.15119663  0.86870108    -0.35100
N475        N  0.89180258  0.11337305  0.86857177    -0.27300
C476        C  0.89791509  0.08233374  0.87940809    -0.02500
C477        C  0.94136540  0.10163974  0.88660090     0.06100
C478        C  0.96056406  0.14519249  0.87963937     0.04200
H479        H  0.87237181  0.04849425  0.88224469     0.09300
H480        H  0.99430664  0.17083374  0.88265974     0.08100
N481        N  0.43871544  0.44532580  0.81622174    -0.26300
N482        N  0.47660515  0.44668763  0.82063925    -0.34100
C483        C  0.46866407  0.40642550  0.82738943     0.02100
C484        C  0.42356344  0.37843334  0.82750661     0.08100
C485        C  0.40546853  0.40413108  0.82041143    -0.05000
H486        H  0.49389332  0.39833320  0.83220223     0.08800
H487        H  0.37085203  0.39351983  0.81800828     0.10000
Cu488      Cu  0.53723010  0.50368234  0.81859014     0.44200
Cu489      Cu  0.43538006  0.49962815  0.80351727     0.42000
Cu490      Cu  0.53946241  0.60469324  0.80231766     0.43900
N491        N  0.59355039  0.56494596  0.81987582    -0.33700
N492        N  0.59429127  0.60239037  0.81499471    -0.27900
C493        C  0.63545013  0.63612146  0.81861635    -0.04000
C494        C  0.66175601  0.61880906  0.82581559     0.08200
C495        C  0.63418139  0.57367685  0.82637305     0.02000
H496        H  0.64565601  0.67051139  0.81564430     0.09600
H497        H  0.64286811  0.54893943  0.83134345     0.08700
N498        N  0.48033410  0.59550760  0.78820352    -0.35100
N499        N  0.44271461  0.55759369  0.78867903    -0.27300
C500        C  0.41149053  0.56268835  0.77724860    -0.02500
C501        C  0.43045267  0.60570381  0.76927983     0.06100
C502        C  0.47398571  0.62564962  0.77645614     0.04200
H503        H  0.37773208  0.53677232  0.77460957     0.09300
H504        H  0.49937545  0.65933891  0.77308054     0.08100
C505        C  0.41329022  0.80689766  0.75757679    -0.12300
C506        C  0.39624201  0.77349688  0.74601856    -0.13800
C507        C  0.26525005  0.64586308  0.74439632    -0.12300
C508        C  0.23179196  0.62869180  0.75590459    -0.13800
C509        C  0.40970442  0.62534114  0.75551235    -0.12300
C510        C  0.39298061  0.64246345  0.74393520    -0.13800
C511        C  0.35181967  0.69258055  0.66876153    -0.15400
C512        C  0.33174771  0.65612019  0.65533959    -0.30600
H513        H  0.36792501  0.72469278  0.66007877     0.13600
H514        H  0.31570642  0.62399174  0.66400533     0.14200
C515        C  0.10692597  0.06310171  0.91308241    -0.12300
C516        C  0.14106534  0.08063088  0.90218927    -0.13800
C517        C  0.97737369  0.93411969  0.91064551    -0.12300
C518        C  0.96066887  0.90107681  0.89881219    -0.13800
C519        C  0.96165563  0.08113848  0.89988455    -0.12300
C520        C  0.97805208  0.06369278  0.91138308    -0.13800
C521        C  0.00213624  0.98627339  0.00297386    -0.15400
C522        C  0.01970282  0.02095368  0.98790055    -0.30600
H523        H  0.98566063  0.95309466  0.99610509     0.13600
H524        H  0.03617235  0.05413589  0.99478554     0.14200
C525        C  0.06101242  0.92495447  0.08998552    -0.12300
C526        C  0.04454415  0.94290375  0.07897229    -0.13800
C527        C  0.88121803  0.92647237  0.08888423    -0.12300
C528        C  0.91531178  0.94389520  0.07793297    -0.13800
C529        C  0.06071569  0.10450348  0.09296334    -0.12300
C530        C  0.04451907  0.07212477  0.08062097    -0.13800
C531        C  0.44484280  0.71947016  0.56548446    -0.12300
C532        C  0.41232764  0.70312488  0.57772940    -0.13800
C533        C  0.26576001  0.54291105  0.56625752    -0.12300
C534        C  0.28315188  0.57601464  0.57798454    -0.13800
C535        C  0.26566506  0.72245633  0.57198173    -0.12300
C536        C  0.28359807  0.70542360  0.58254606    -0.13800
C537        C  0.71655510  0.44552004  0.42489210    -0.12300
C538        C  0.69862070  0.41216601  0.41338984    -0.13800
C539        C  0.69721229  0.28401207  0.41458435    -0.12300
C540        C  0.71436608  0.26856935  0.42715059    -0.13800
C541        C  0.56705092  0.28403518  0.41268776    -0.12300
C542        C  0.53281760  0.26692161  0.42354516    -0.13800
C543        C  0.75063445  0.35417962  0.24552841    -0.12300
C544        C  0.78395890  0.37141906  0.23394348    -0.13800
C545        C  0.60411855  0.19022697  0.23615928    -0.12300
C546        C  0.62139520  0.22453136  0.24690652    -0.13800
C547        C  0.62254197  0.35501072  0.24464929    -0.12300
C548        C  0.60670845  0.37224391  0.23241174    -0.13800
C549        C  0.66832607  0.31084568  0.32198969    -0.15400
C550        C  0.65226998  0.32892481  0.33721541    -0.30600
H551        H  0.68456436  0.29351170  0.32875540     0.13600
H552        H  0.63617945  0.34635580  0.33046130     0.14200
loop_ 
_geom_bond_atom_site_label_1 
_geom_bond_atom_site_label_2 
_geom_bond_distance 
_geom_bond_site_symmetry_2 
_ccdc_geom_bond_type 
C1            C2   1.537       .  S
C1            C7   1.538       .  S
C1            C5   1.549       .  S
C1          C549   1.521       .  S
C2            H9   1.086       .  S
C2            C3   1.363       .  D
C3            C4   1.533       .  S
C3          C543   1.441       .  S
C4            C8   1.534       .  S
C4            C6   1.533       .  S
C4           H10   1.112       .  S
C5           H11   1.081       .  S
C5            C6   1.366       .  D
C6          C547   1.445       .  S
C7           H12   1.086       .  S
C7            C8   1.363       .  D
C8          C546   1.443       .  S
C13          C14   1.549       .  S
C13          C19   1.538       .  S
C13          C17   1.537       .  S
C13         C550   1.521       .  S
C14          H21   1.083       .  S
C14          C15   1.366       .  D
C15          C16   1.532       .  S
C15         C539   1.443       .  S
C16          C20   1.532       .  S
C16          C18   1.534       .  S
C16          H22   1.112       .  S
C17          H23   1.086       .  S
C17          C18   1.362       .  D
C18         C541   1.443       .  S
C19          H24   1.086       .  S
C19          C20   1.363       .  D
C20         C538   1.440       .  S
N25          N26   1.322       .  A
N25          C29   1.348       .  A
N25         Cu33   2.080       .  S
N26          C27   1.344       .  A
N26         Cu32   2.072       .  S
C27          C28   1.383       .  A
C27          H30   1.082       .  S
C28          C29   1.385       .  A
C28          C76   1.473   1_565  S
C29          H31   1.082       .  S
Cu32         N35   2.071       .  S
Cu33         N43   2.081       .  S
Cu34         N36   2.080       .  S
Cu34         N42   2.081       .  S
N35          N36   1.322       .  A
N35          C39   1.343       .  A
N36          C37   1.349       .  A
C37          C38   1.385       .  A
C37          H40   1.082       .  S
C38          C39   1.381       .  A
C38          C52   1.472   1_455  S
C39          H41   1.082       .  S
N42          N43   1.325       .  A
N42          C46   1.346       .  A
N43          C44   1.346       .  A
C44          C45   1.380       .  A
C44          H47   1.082       .  S
C45          C46   1.380       .  A
C45         C535   1.439       .  S
C46          H48   1.082       .  S
N49          N50   1.323       .  A
N49          C53   1.349       .  A
N49         Cu57   2.082       .  S
N50          C51   1.343       .  A
N50         Cu56   2.072       .  S
C51          C52   1.381       .  A
C51          H54   1.082       .  S
C52          C53   1.385       .  A
C53          H55   1.082       .  S
Cu56         N59   2.071       .  S
Cu57         N67   2.082       .  S
Cu58         N60   2.068       .  S
Cu58         N66   2.069       .  S
N59          N60   1.321       .  A
N59          C63   1.343       .  A
N60          C61   1.346       .  A
C61          C62   1.382       .  A
C61          H64   1.082       .  S
C62          C63   1.382       .  A
C62         C158   1.468       .  S
C63          H65   1.082       .  S
N66          N67   1.324       .  A
N66          C70   1.344       .  A
N67          C68   1.347       .  A
C68          C69   1.381       .  A
C68          H71   1.082       .  S
C69          C70   1.377       .  A
C69         C537   1.436       .  S
C70          H72   1.082       .  S
N73          N74   1.322       .  A
N73          C77   1.349       .  A
N73         Cu81   2.085       .  S
N74          C75   1.343       .  A
N74         Cu80   2.068       .  S
C75          C76   1.381       .  A
C75          H78   1.082       .  S
C76          C77   1.386       .  A
C77          H79   1.082       .  S
Cu80         N83   2.068       .  S
Cu81         N91   2.085       .  S
Cu82         N84   2.080       .  S
Cu82         N90   2.081       .  S
N83          N84   1.321       .  A
N83          C87   1.343       .  A
N84          C85   1.348       .  A
C85          C86   1.386       .  A
C85          H88   1.082       .  S
C86          C87   1.382       .  A
C86         C110   1.472       .  S
C87          H89   1.082       .  S
N90          N91   1.325       .  A
N90          C94   1.346       .  A
N91          C92   1.346       .  A
C92          C93   1.380       .  A
C92          H95   1.082       .  S
C93          C94   1.379       .  A
C93         C542   1.439       .  S
C94          H96   1.082       .  S
N97          N98   1.322       .  A
N97         C101   1.347       .  A
N97        Cu105   2.075       .  S
N98          C99   1.344       .  A
N98        Cu104   2.075       .  S
C99         C100   1.383       .  A
C99         H102   1.082       .  S
C100        C101   1.384       .  A
C100        C134   1.472   1_455  S
C101        H103   1.082       .  S
Cu104       N107   2.075       .  S
Cu105       N115   2.075       .  S
Cu106       N108   2.077       .  S
Cu106       N114   2.078       .  S
N107        N108   1.322       .  A
N107        C111   1.344       .  A
N108        C109   1.348       .  A
C109        C110   1.384       .  A
C109        H112   1.081       .  S
C110        C111   1.383       .  A
C111        H113   1.082       .  S
N114        N115   1.324       .  A
N114        C118   1.346       .  A
N115        C116   1.345       .  A
C116        C117   1.378       .  A
C116        H119   1.082       .  S
C117        C118   1.379       .  A
C117        C533   1.436       .  S
C118        H120   1.082       .  S
N121        N122   1.322       .  A
N121        C125   1.346       .  A
N121       Cu129   2.069       .  S
N122        C123   1.343       .  A
N122       Cu128   2.066       .  S
C123        C124   1.381       .  A
C123        H126   1.082       .  S
C124        C125   1.382       .  A
C124        C148   1.466   1_545  S
C125        H127   1.082       .  S
Cu128       N131   2.066       .  S
Cu129       N139   2.070       .  S
Cu130       N132   2.086       .  S
Cu130       N138   2.087       .  S
N131        N132   1.322       .  A
N131        C135   1.343       .  A
N132        C133   1.348       .  A
C133        C134   1.386       .  A
C133        H136   1.082       .  S
C134        C135   1.381       .  A
C135        H137   1.082       .  S
N138        N139   1.324       .  A
N138        C142   1.347       .  A
N139        C140   1.345       .  A
C140        C141   1.377       .  A
C140        H143   1.082       .  S
C141        C142   1.381       .  A
C141        C540   1.438       .  S
C142        H144   1.082       .  S
N145        N146   1.321       .  A
N145        C149   1.346       .  A
N145       Cu153   2.072       .  S
N146        C147   1.343       .  A
N146       Cu152   2.062       .  S
C147        C148   1.380       .  A
C147        H150   1.082       .  S
C148        C149   1.383       .  A
C149        H151   1.082       .  S
Cu152       N155   2.063       .  S
Cu153       N163   2.073       .  S
Cu154       N156   2.080       .  S
Cu154       N162   2.080       .  S
N155        N156   1.322       .  A
N155        C159   1.342       .  A
N156        C157   1.347       .  A
C157        C158   1.385       .  A
C157        H160   1.082       .  S
C158        C159   1.379       .  A
C159        H161   1.082       .  S
N162        N163   1.324       .  A
N162        C166   1.346       .  A
N163        C164   1.345       .  A
C164        C165   1.378       .  A
C164        H167   1.082       .  S
C165        C166   1.380       .  A
C165        C531   1.437       .  S
C166        H168   1.082       .  S
N169        N170   1.321       .  A
N169        C173   1.346       .  A
N169       Cu177   2.073       .  S
N170        C171   1.343       .  A
N170       Cu176   2.065       .  S
C171        C172   1.381       .  A
C171        H174   1.082       .  S
C172        C173   1.383       .  A
C172        C220   1.467       .  S
C173        H175   1.082       .  S
Cu176       N179   2.066       .  S
Cu177       N187   2.074       .  S
Cu178       N180   2.087       .  S
Cu178       N186   2.088       .  S
N179        N180   1.323       .  A
N179        C183   1.342       .  A
N180        C181   1.349       .  A
C181        C182   1.386       .  A
C181        H184   1.082       .  S
C182        C183   1.380       .  A
C182        C268   1.472       .  S
C183        H185   1.082       .  S
N186        N187   1.325       .  A
N186        C190   1.347       .  A
N187        C188   1.346       .  A
C188        C189   1.379       .  A
C188        H191   1.082       .  S
C189        C190   1.381       .  A
C189        C548   1.440       .  S
C190        H192   1.082       .  S
N193        N194   1.322   1_655  A
N193        C197   1.348       .  A
N193       Cu201   2.080       .  S
N194        C195   1.342       .  A
N194       Cu200   2.066       .  S
C195        C196   1.380       .  A
C195        H198   1.082       .  S
C196        C197   1.385   1_455  A
C196        C302   1.470       .  S
C197        H199   1.082       .  S
Cu200       N203   2.066       .  S
Cu201       N211   2.081       .  S
Cu202       N204   2.070       .  S
Cu202       N210   2.072       .  S
N203        N204   1.321   1_455  A
N203        C207   1.343       .  A
N204        C205   1.346   1_655  A
C205        C206   1.383       .  A
C205        H208   1.082   1_455  S
C206        C207   1.382       .  A
C206        C230   1.468       .  S
C207        H209   1.082       .  S
N210        N211   1.325       .  A
N210        C214   1.345       .  A
N211        C212   1.346       .  A
C212        C213   1.379       .  A
C212        H215   1.082       .  S
C213        C214   1.378       .  A
C213        C544   1.436       .  S
C214        H216   1.082       .  S
N217        N218   1.322       .  A
N217        C221   1.346       .  A
N217       Cu225   2.074       .  S
N218        C219   1.343       .  A
N218       Cu224   2.063       .  S
C219        C220   1.381       .  A
C219        H222   1.082       .  S
C220        C221   1.383       .  A
C221        H223   1.082       .  S
Cu224       N227   2.064       .  S
Cu225       N235   2.075       .  S
Cu226       N228   2.078       .  S
Cu226       N234   2.078       .  S
N227        N228   1.323       .  A
N227        C231   1.342       .  A
N228        C229   1.346       .  A
C229        C230   1.384       .  A
C229        H232   1.082       .  S
C230        C231   1.380       .  A
C231        H233   1.082       .  S
N234        N235   1.324       .  A
N234        C238   1.346       .  A
N235        C236   1.345       .  A
C236        C237   1.379       .  A
C236        H239   1.082       .  S
C237        C238   1.380       .  A
C237        C529   1.438       .  S
C238        H240   1.082       .  S
N241        N242   1.322       .  A
N241        C245   1.348       .  A
N241       Cu249   2.078   1_565  S
N242        C243   1.343       .  A
N242       Cu248   2.071       .  S
C243        C244   1.381       .  A
C243        H246   1.082       .  S
C244        C245   1.384       .  A
C244        C292   1.470       .  S
C245        H247   1.082       .  S
Cu248       N251   2.072       .  S
Cu249       N259   2.079       .  S
Cu250       N252   2.083   1_545  S
Cu250       N258   2.083       .  S
N251        N252   1.322       .  A
N251        C255   1.344       .  A
N252        C253   1.349       .  A
C253        C254   1.386       .  A
C253        H256   1.081       .  S
C254        C255   1.383       .  A
C254        C278   1.475       .  S
C255        H257   1.082       .  S
N258        N259   1.325       .  A
N258        C262   1.346       .  A
N259        C260   1.346       .  A
C260        C261   1.379       .  A
C260        H263   1.082       .  S
C261        C262   1.380       .  A
C261        C545   1.439       .  S
C262        H264   1.082       .  S
N265        N266   1.322       .  A
N265        C269   1.348       .  A
N265       Cu273   2.076       .  S
N266        C267   1.343       .  A
N266       Cu272   2.075       .  S
C267        C268   1.382       .  A
C267        H270   1.082       .  S
C268        C269   1.385       .  A
C269        H271   1.082       .  S
Cu272       N275   2.075       .  S
Cu273       N283   2.077       .  S
Cu274       N276   2.083       .  S
Cu274       N282   2.084       .  S
N275        N276   1.322       .  A
N275        C279   1.344       .  A
N276        C277   1.349       .  A
C277        C278   1.386       .  A
C277        H280   1.082       .  S
C278        C279   1.383       .  A
C279        H281   1.082       .  S
N282        N283   1.325       .  A
N282        C286   1.347       .  A
N283        C284   1.345       .  A
C284        C285   1.378       .  A
C284        H287   1.082       .  S
C285        C286   1.380       .  A
C285        C527   1.438       .  S
C286        H288   1.082       .  S
N289        N290   1.321       .  A
N289        C293   1.347       .  A
N289       Cu297   2.075       .  S
N290        C291   1.343       .  A
N290       Cu296   2.068       .  S
C291        C292   1.381       .  A
C291        H294   1.082       .  S
C292        C293   1.384       .  A
C293        H295   1.082       .  S
Cu296       N299   2.068       .  S
Cu297       N307   2.077       .  S
Cu298       N300   2.078       .  S
Cu298       N306   2.079       .  S
N299        N300   1.322       .  A
N299        C303   1.342       .  A
N300        C301   1.348       .  A
C301        C302   1.385       .  A
C301        H304   1.082       .  S
C302        C303   1.381       .  A
C303        H305   1.082       .  S
N306        N307   1.325       .  A
N306        C310   1.345       .  A
N307        C308   1.345       .  A
C308        C309   1.378       .  A
C308        H311   1.082       .  S
C309        C310   1.379       .  A
C309        C525   1.436       .  S
C310        H312   1.082       .  S
C313        C314   1.537       .  S
C313        C319   1.548   1_565  S
C313        C317   1.538   1_455  S
C313        C521   1.519       .  S
C314        H321   1.087       .  S
C314        C315   1.362       .  D
C315        C316   1.533       .  S
C315        C526   1.440       .  S
C316        C320   1.533   1_565  S
C316        C318   1.534   1_455  S
C316        H322   1.112       .  S
C317        H323   1.087       .  S
C317        C318   1.363       .  D
C318        C528   1.442       .  S
C319        H324   1.083       .  S
C319        C320   1.365       .  D
C320        C530   1.442       .  S
C325        C326   1.537       .  S
C325        C331   1.549   1_445  S
C325        C329   1.537   1_455  S
C325        C522   1.520       .  S
C326        H333   1.087       .  S
C326        C327   1.363       .  D
C327        C328   1.533       .  S
C327        C515   1.441       .  S
C328        C332   1.533   1_445  S
C328        C330   1.533   1_455  S
C328        H334   1.112       .  S
C329        H335   1.087       .  S
C329        C330   1.362       .  D
C330        C520   1.439       .  S
C331        H336   1.082       .  S
C331        C332   1.365       .  D
C332        C517   1.443       .  S
C337        C338   1.539       .  S
C337        C343   1.538       .  S
C337        C341   1.538       .  S
C337        C512   1.512       .  S
C338        H345   1.086       .  S
C338        C339   1.364       .  D
C339        C340   1.535       .  S
C339        C536   1.443       .  S
C340        C344   1.534       .  S
C340        C342   1.534       .  S
C340        H346   1.112       .  S
C341        H347   1.087       .  S
C341        C342   1.363       .  D
C342        C534   1.440       .  S
C343        H348   1.086       .  S
C343        C344   1.364       .  D
C344        C532   1.441       .  S
C349        C350   1.538       .  S
C349        C355   1.538       .  S
C349        C353   1.539       .  S
C349        C511   1.512       .  S
C350        H357   1.087       .  S
C350        C351   1.364       .  D
C351        C352   1.536       .  S
C351        C506   1.444       .  S
C352        C356   1.535       .  S
C352        C354   1.535       .  S
C352        H358   1.112       .  S
C353        H359   1.086       .  S
C353        C354   1.365       .  D
C354        C510   1.443       .  S
C355        H360   1.086       .  S
C355        C356   1.363       .  D
C356        C507   1.442       .  S
N361        N362   1.322       .  A
N361        C365   1.348       .  A
N361       Cu369   2.080   1_545  S
N362        C363   1.342       .  A
N362       Cu368   2.067       .  S
C363        C364   1.380       .  A
C363        H366   1.082       .  S
C364        C365   1.385       .  A
C364        C388   1.470       .  S
C365        H367   1.082   1_545  S
Cu368       N371   2.067       .  S
Cu369       N379   2.081       .  S
Cu370       N372   2.083   1_565  S
Cu370       N378   2.084       .  S
N371        N372   1.322       .  A
N371        C375   1.343       .  A
N372        C373   1.348       .  A
C373        C374   1.386       .  A
C373        H376   1.081       .  S
C374        C375   1.381       .  A
C374        C460   1.472       .  S
C375        H377   1.082       .  S
N378        N379   1.325       .  A
N378        C382   1.347       .  A
N379        C380   1.346       .  A
C380        C381   1.380       .  A
C380        H383   1.082       .  S
C381        C382   1.380       .  A
C381        C505   1.440       .  S
C382        H384   1.082       .  S
N385        N386   1.322       .  A
N385        C389   1.347       .  A
N385       Cu393   2.075       .  S
N386        C387   1.343       .  A
N386       Cu392   2.070       .  S
C387        C388   1.381       .  A
C387        H390   1.082       .  S
C388        C389   1.384       .  A
C389        H391   1.082       .  S
Cu392       N395   2.070       .  S
Cu393       N403   2.076       .  S
Cu394       N396   2.078       .  S
Cu394       N402   2.078       .  S
N395        N396   1.322       .  A
N395        C399   1.344       .  A
N396        C397   1.347       .  A
C397        C398   1.384       .  A
C397        H400   1.082       .  S
C398        C399   1.382       .  A
C398        C484   1.470       .  S
C399        H401   1.082       .  S
N402        N403   1.324       .  A
N402        C406   1.346       .  A
N403        C404   1.345       .  A
C404        C405   1.379       .  A
C404        H407   1.082       .  S
C405        C406   1.379       .  A
C405        C516   1.437       .  S
C406        H408   1.082       .  S
N409        N410   1.322   1_455  A
N409        C413   1.346       .  A
N409       Cu417   2.075       .  S
N410        C411   1.343       .  A
N410       Cu416   2.066       .  S
C411        C412   1.381       .  A
C411        H414   1.082       .  S
C412        C413   1.383   1_655  A
C412        C446   1.468       .  S
C413        H415   1.082       .  S
Cu416       N419   2.065       .  S
Cu417       N427   2.076       .  S
Cu418       N420   2.079       .  S
Cu418       N426   2.079       .  S
N419        N420   1.322   1_655  A
N419        C423   1.342       .  A
N420        C421   1.348       .  A
C421        C422   1.385   1_455  A
C421        H424   1.082       .  S
C422        C423   1.380       .  A
C422        C470   1.469       .  S
C423        H425   1.082       .  S
N426        N427   1.324       .  A
N426        C430   1.346       .  A
N427        C428   1.346       .  A
C428        C429   1.379       .  A
C428        H431   1.082       .  S
C429        C430   1.380       .  A
C429        C508   1.438       .  S
C430        H432   1.082       .  S
N433        N434   1.322       .  A
N433        C437   1.347       .  A
N433       Cu441   2.080       .  S
N434        C435   1.342       .  A
N434       Cu440   2.064       .  S
C435        C436   1.380       .  A
C435        H438   1.082       .  S
C436        C437   1.384       .  A
C436        C494   1.469       .  S
C437        H439   1.082       .  S
Cu440       N443   2.064       .  S
Cu441       N451   2.081       .  S
Cu442       N444   2.077       .  S
Cu442       N450   2.079       .  S
N443        N444   1.322       .  A
N443        C447   1.343       .  A
N444        C445   1.347       .  A
C445        C446   1.384       .  A
C445        H448   1.082   1_655  S
C446        C447   1.381       .  A
C447        H449   1.082       .  S
N450        N451   1.325       .  A
N450        C454   1.346       .  A
N451        C452   1.346       .  A
C452        C453   1.380       .  A
C452        H455   1.082       .  S
C453        C454   1.379       .  A
C453        C518   1.439       .  S
C454        H456   1.082       .  S
N457        N458   1.322       .  A
N457        C461   1.348       .  A
N457       Cu465   2.076       .  S
N458        C459   1.344       .  A
N458       Cu464   2.075       .  S
C459        C460   1.383       .  A
C459        H462   1.082       .  S
C460        C461   1.384       .  A
C461        H463   1.082       .  S
Cu464       N467   2.075       .  S
Cu465       N475   2.076       .  S
Cu466       N468   2.070       .  S
Cu466       N474   2.071       .  S
N467        N468   1.322       .  A
N467        C471   1.343       .  A
N468        C469   1.347       .  A
C469        C470   1.383       .  A
C469        H472   1.082   1_655  S
C470        C471   1.382       .  A
C471        H473   1.082       .  S
N474        N475   1.324       .  A
N474        C478   1.345       .  A
N475        C476   1.345       .  A
C476        C477   1.378       .  A
C476        H479   1.082       .  S
C477        C478   1.378       .  A
C477        C519   1.434       .  S
C478        H480   1.082       .  S
N481        N482   1.322       .  A
N481        C485   1.347       .  A
N481       Cu489   2.078       .  S
N482        C483   1.343       .  A
N482       Cu488   2.068       .  S
C483        C484   1.381       .  A
C483        H486   1.082       .  S
C484        C485   1.384       .  A
C485        H487   1.082       .  S
Cu488       N491   2.068       .  S
Cu489       N499   2.079       .  S
Cu490       N492   2.076       .  S
Cu490       N498   2.077       .  S
N491        N492   1.322       .  A
N491        C495   1.343       .  A
N492        C493   1.347       .  A
C493        C494   1.383       .  A
C493        H496   1.082       .  S
C494        C495   1.381       .  A
C495        H497   1.082       .  S
N498        N499   1.324       .  A
N498        C502   1.346       .  A
N499        C500   1.346       .  A
C500        C501   1.380       .  A
C500        H503   1.082       .  S
C501        C502   1.379       .  A
C501        C509   1.438       .  S
C502        H504   1.082       .  S
C505        C506   1.207       .  T
C507        C508   1.206       .  T
C509        C510   1.207       .  T
C511        H513   1.087       .  S
C511        C512   1.344       .  D
C512        H514   1.087       .  S
C515        C516   1.206       .  T
C517        C518   1.207       .  T
C519        C520   1.204       .  T
C521        H523   1.080   1_454  S
C521        C522   1.348   1_564  D
C522        H524   1.081       .  S
C525        C526   1.205       .  T
C527        C528   1.206       .  T
C529        C530   1.206       .  T
C531        C532   1.205       .  T
C533        C534   1.205       .  T
C535        C536   1.207       .  T
C537        C538   1.205       .  T
C539        C540   1.207       .  T
C541        C542   1.207       .  T
C543        C544   1.205       .  T
C545        C546   1.207       .  T
C547        C548   1.207       .  T
C549        H551   1.080       .  S
C549        C550   1.348       .  D
C550        H552   1.078       .  S
