geometry optimzed in LAMMPS
_audit_creation_date              2020-11-30 
_audit_creation_method            'lammps2cif' 
_symmetry_space_group_name_H-M    'P1' 
_symmetry_Int_Tables_number       1 
_symmetry_cell_setting            triclinic 
loop_ 
_symmetry_equiv_pos_as_xyz 
  x,y,z 
_cell_length_a                    53.91550617 
_cell_length_b                    54.077866541910616 
_cell_length_c                    54.03146872111269 
_cell_angle_alpha                 89.80370200911756 
_cell_angle_beta                  90.12332014484195 
_cell_angle_gamma                 90.00961789137227 
loop_ 
_atom_site_label 
_atom_site_type_symbol 
_atom_site_fract_x 
_atom_site_fract_y 
_atom_site_fract_z 
_atom_site_charge 
C1          C  0.97795963  0.01158254  0.00585714     0.02000
C2          C  0.99274913  0.01899791  0.98466140     0.02000
C3          C  0.01490135  0.00518922  0.97881419     0.02000
C4          C  0.02428322  0.98750478  0.99656848     0.02000
C5          C  0.01132500  0.98358438  0.01961109     0.02000
C6          C  0.99110602  0.00012358  0.02614527     0.02000
O7          O  0.03189743  0.20092150  0.86695236    -0.80500
O8          O  0.97126408  0.29920820  0.86680052    -0.80500
O9          O  0.96420503  0.24264868  0.83704806    -0.80500
O10         O  0.03871072  0.25847064  0.83764734    -0.80400
O11         O  0.94345109  0.25953934  0.86734553    -0.80600
O12         O  0.05878270  0.24084725  0.86773346    -0.80500
O13         O  0.99644213  0.28723101  0.83766622    -0.80500
O14         O  0.00855924  0.21511379  0.83702402    -0.80500
C15         C  0.02508799  0.20035114  0.84454922     1.09200
C16         C  0.97973675  0.30186028  0.84503806     1.09100
C17         C  0.94427977  0.25215170  0.84509392     1.09200
C18         C  0.05847967  0.24910038  0.84561500     1.09100
O19         O  0.03566662  0.25414739  0.91622318    -0.80500
O20         O  0.96540012  0.24286621  0.91388301    -0.80500
O21         O  0.99199084  0.19129058  0.88353371    -0.80500
O22         O  0.01112455  0.30657954  0.88501155    -0.80500
O23         O  0.99331308  0.28648727  0.91465138    -0.80500
O24         O  0.00838092  0.21123001  0.91452776    -0.80500
O25         O  0.05070193  0.27858451  0.88784772    -0.80400
O26         O  0.95204953  0.21919912  0.88383419    -0.80500
Co27       Co  0.03082380  0.22884856  0.89102490     1.51500
Co28       Co  0.97122330  0.27003770  0.89043448     1.51700
Co29       Co  0.98119480  0.21985990  0.86063409     1.51600
Co30       Co  0.02232933  0.27969857  0.86237387     1.51500
O31         O  0.00119168  0.24963366  0.87600130    -1.42400
C32         C  0.05180993  0.26941512  0.90963175     1.09200
C33         C  0.95045210  0.22673168  0.90597012     1.09200
C34         C  0.99880199  0.19159648  0.90619692     1.09200
C35         C  0.00247217  0.30640902  0.90673437     1.09200
O36         O  0.86927562  0.02582821  0.19749721    -0.80500
O37         O  0.86623400  0.97179167  0.29818812    -0.80500
O38         O  0.84045992  0.96025147  0.24151084    -0.80500
O39         O  0.83700704  0.03730377  0.25195437    -0.80400
O40         O  0.87096892  0.94275462  0.26106174    -0.80600
O41         O  0.86822839  0.05675712  0.23487792    -0.80500
O42         O  0.83628121  0.99375815  0.28170990    -0.80500
O43         O  0.83996694  0.00206864  0.21226214    -0.80500
C44         C  0.84718746  0.01742510  0.19641302     1.09200
C45         C  0.84348188  0.97783951  0.29733645     1.09100
C46         C  0.84906588  0.94156620  0.25268839     1.09200
C47         C  0.84556816  0.05647054  0.24118556     1.09100
O48         O  0.91386595  0.03689130  0.25536631    -0.80500
O49         O  0.91762732  0.96516949  0.24636352    -0.80500
O50         O  0.88950930  0.98726879  0.19288263    -0.80500
O51         O  0.88186095  0.01183444  0.30604289    -0.80500
O52         O  0.91394282  0.99591486  0.28733123    -0.80500
O53         O  0.91743201  0.00556190  0.21503869    -0.80500
O54         O  0.88227016  0.05064040  0.27686187    -0.80400
O55         O  0.88961318  0.94969399  0.22198946    -0.80500
Co56       Co  0.89194874  0.02861064  0.22756769     1.51500
Co57       Co  0.89197548  0.97174817  0.27122344     1.51700
Co58       Co  0.86479448  0.97705473  0.21976527     1.51600
Co59       Co  0.85974339  0.02120680  0.27650847     1.51500
O60         O  0.87693149  0.99979170  0.24883462    -1.42400
C61         C  0.90488964  0.05193122  0.27079479     1.09200
C62         C  0.91146610  0.94917855  0.23058830     1.09200
C63         C  0.91183512  0.99470379  0.19524303     1.09200
C64         C  0.90466078  0.00538391  0.30646291     1.09200
C65         C  0.02220908  0.01615077  0.50439159     0.02000
C66         C  0.00709648  0.02278011  0.48332955     0.02000
C67         C  0.98624167  0.00767382  0.47631914     0.02000
C68         C  0.97880740  0.98732203  0.49189882     0.02000
C69         C  0.99487452  0.97944596  0.51184550     0.02000
C70         C  0.01529340  0.99506303  0.51948516     0.02000
O71         O  0.03081609  0.79833751  0.63426387    -0.80500
O72         O  0.96822869  0.70310947  0.63317262    -0.80500
O73         O  0.96106770  0.75848735  0.66087614    -0.80500
O74         O  0.03780520  0.74246513  0.66195556    -0.80400
O75         O  0.94154849  0.74268850  0.62937516    -0.80600
O76         O  0.05760501  0.75869176  0.63085936    -0.80500
O77         O  0.99256968  0.71686740  0.66256745    -0.80500
O78         O  0.00583939  0.78435959  0.66305236    -0.80500
C79         C  0.02293819  0.79883122  0.65646938     1.09200
C80         C  0.97576911  0.70223597  0.65550758     1.09100
C81         C  0.94138152  0.74952669  0.65178327     1.09200
C82         C  0.05763012  0.75146803  0.65325479     1.09100
O83         O  0.03263935  0.74424847  0.58488795    -0.80500
O84         O  0.96720910  0.75785876  0.58426642    -0.80500
O85         O  0.99202464  0.80919945  0.61648770    -0.80500
O86         O  0.00737935  0.69239510  0.61641407    -0.80500
O87         O  0.99233448  0.71320210  0.58537903    -0.80500
O88         O  0.00756776  0.78881948  0.58557231    -0.80500
O89         O  0.04722357  0.71970986  0.61358408    -0.80400
O90         O  0.95224014  0.78204624  0.61310864    -0.80500
Co91       Co  0.02940819  0.77073557  0.60909286     1.51500
Co92       Co  0.97010773  0.73103845  0.60828244     1.51700
Co93       Co  0.97963658  0.78075296  0.63826003     1.51600
Co94       Co  0.01943617  0.72068990  0.63848944     1.51500
O95         O  0.99963699  0.75080806  0.62378136    -1.42400
C96         C  0.04698868  0.72699873  0.59116329     1.09200
C97         C  0.95242927  0.77460287  0.59085274     1.09200
C98         C  0.99892634  0.80876058  0.59395431     1.09200
C99         C  0.00023209  0.69295135  0.59393902     1.09200
O100        O  0.20434884  0.86498046  0.03032313    -0.80500
O101        O  0.30114966  0.86219975  0.97060871    -0.80500
O102        O  0.24576641  0.83681003  0.96212526    -0.80500
O103        O  0.25868597  0.83787303  0.03873745    -0.80400
O104        O  0.26259287  0.86741950  0.94230559    -0.80600
O105        O  0.24372850  0.86930703  0.05854214    -0.80500
O106        O  0.28516391  0.83469504  0.99555402    -0.80500
O107        O  0.21906678  0.83595698  0.00619662    -0.80500
C108        C  0.20395100  0.84272041  0.02259407     1.09200
C109        C  0.30032150  0.83995397  0.97876108     1.09100
C110        C  0.25509566  0.84522184  0.94242757     1.09200
C111        C  0.25029426  0.84673762  0.05849552     1.09100
O112        O  0.25880901  0.91455622  0.03249311    -0.80500
O113        O  0.24818100  0.91358132  0.96522432    -0.80500
O114        O  0.19468107  0.88172853  0.99057998    -0.80500
O115        O  0.31114770  0.88010158  0.00935638    -0.80500
O116        O  0.29208069  0.91145065  0.99285640    -0.80500
O117        O  0.21456013  0.91299732  0.00610904    -0.80500
O118        O  0.28310188  0.88607508  0.04812328    -0.80400
O119        O  0.22303239  0.88468180  0.95149957    -0.80500
Co120      Co  0.23221558  0.89020816  0.02913696     1.51500
Co121      Co  0.27413537  0.88860107  0.97059009     1.51700
Co122      Co  0.22337013  0.86002038  0.97950798     1.51600
Co123      Co  0.28181470  0.85994529  0.02113377     1.51500
O124        O  0.25281492  0.87485102  0.00002126    -1.42400
C125        C  0.27536221  0.90837866  0.04777543     1.09200
C126        C  0.23117766  0.90675059  0.95060061     1.09200
C127        C  0.19475411  0.90423876  0.99724435     1.09200
C128        C  0.31167753  0.90230409  0.00180539     1.09200
O129        O  0.00022200  0.78605845  0.16347919    -0.80500
O130        O  0.99633309  0.71571325  0.16242761    -0.80500
O131        O  0.94501864  0.77110099  0.12786574    -0.80500
O132        O  0.05631663  0.73090742  0.13260087    -0.80400
O133        O  0.96173326  0.75155367  0.15844339    -0.80600
O134        O  0.03759387  0.74994608  0.16256595    -0.80500
O135        O  0.02028358  0.69731320  0.13533414    -0.80500
O136        O  0.97950550  0.80417777  0.13375677    -0.80500
C137        C  0.98616407  0.80342631  0.15625381     1.09200
C138        C  0.01041796  0.69810980  0.15680273     1.09100
C139        C  0.94333441  0.76270265  0.14977094     1.09200
C140        C  0.05654581  0.73884981  0.15460254     1.09100
O141        O  0.05439123  0.77184747  0.11576651    -0.80500
O142        O  0.94846491  0.73207298  0.10840998    -0.80500
O143        O  0.00316498  0.79217521  0.08648563    -0.80500
O144        O  0.00316559  0.71180074  0.08544362    -0.80500
O145        O  0.98066870  0.69600355  0.11465349    -0.80500
O146        O  0.02109483  0.80687470  0.11911290    -0.80500
O147        O  0.03813264  0.74977285  0.08578636    -0.80400
O148        O  0.96863699  0.75465727  0.08123502    -0.80500
Co149      Co  0.02598260  0.77611173  0.13977211     1.51500
Co150      Co  0.97408664  0.72624057  0.13575019     1.51700
Co151      Co  0.97657514  0.77793976  0.10768346     1.51600
Co152      Co  0.02697833  0.72487467  0.11003937     1.51500
O153        O  0.00105230  0.75126314  0.12302959    -1.42400
C154        C  0.05422387  0.76507668  0.09326801     1.09200
C155        C  0.95063741  0.74090461  0.08656066     1.09200
C156        C  0.01482546  0.80964057  0.09666585     1.09200
C157        C  0.99038342  0.69397692  0.09345192     1.09200
C158        C  0.26631044  0.76793325  0.24343584     0.02000
C159        C  0.24485792  0.76306601  0.22816242     0.02000
C160        C  0.22732652  0.74440009  0.23571440     0.02000
C161        C  0.23278541  0.72829996  0.25635816     0.02000
C162        C  0.25445359  0.73287686  0.27143636     0.02000
C163        C  0.27229040  0.75126302  0.26360716     0.02000
O164        O  0.21263177  0.66233304  0.50096450    -0.80500
O165        O  0.28204510  0.66007057  0.49742612    -0.80500
O166        O  0.23056177  0.63081774  0.55813171    -0.80500
O167        O  0.25803895  0.62568356  0.44298658    -0.80400
O168        O  0.25031432  0.66042408  0.53946165    -0.80600
O169        O  0.24157380  0.65752893  0.46069360    -0.80500
O170        O  0.29581062  0.62980400  0.47414367    -0.80500
O171        O  0.19490720  0.63580476  0.52587290    -0.80500
C172        C  0.19623350  0.65748899  0.51650303     1.09200
C173        C  0.29662021  0.65235873  0.48062774     1.09100
C174        C  0.23913396  0.65254901  0.55851674     1.09200
C175        C  0.25120753  0.64816932  0.44174184     1.09100
O176        O  0.21796389  0.60922147  0.45129798    -0.80500
O177        O  0.27059687  0.61172028  0.55332335    -0.80500
O178        O  0.20610838  0.58446164  0.50697832    -0.80500
O179        O  0.28346856  0.58320486  0.49831500    -0.80500
O180        O  0.30259192  0.61424752  0.51552816    -0.80500
O181        O  0.18744855  0.61465834  0.48845775    -0.80500
O182        O  0.24124639  0.58049789  0.46777952    -0.80400
O183        O  0.24546881  0.58321196  0.53871988    -0.80500
Co184      Co  0.21755820  0.63560404  0.47758422     1.51500
Co185      Co  0.27357615  0.63622009  0.52426466     1.51700
Co186      Co  0.22137171  0.60878773  0.52956913     1.51600
Co187      Co  0.26749540  0.60525554  0.47360174     1.56300
O188        O  0.24529288  0.62144679  0.50132654    -1.42400
C189        C  0.22508919  0.58679513  0.45204256     1.09200
C190        C  0.26126720  0.58997630  0.55452554     1.09200
C191        C  0.18699369  0.59252626  0.49650487     1.09200
C192        C  0.30289410  0.59206686  0.50804452     1.09200
C193        C  0.26466850  0.72717866  0.74567099     0.02000
C194        C  0.24399731  0.73432375  0.73000171     0.02000
C195        C  0.22876307  0.75525270  0.73678127     0.02000
C196        C  0.23615182  0.77065097  0.75725314     0.02000
C197        C  0.25571216  0.76266990  0.77358263     0.02000
C198        C  0.27129892  0.74215530  0.76690305     0.02000
O199        O  0.44960214  0.77250592  0.89525427    -0.80500
O200        O  0.55215559  0.72648892  0.88223208    -0.80500
O201        O  0.50179460  0.70791137  0.91161986    -0.80500
O202        O  0.50530539  0.78577645  0.91789640    -0.80400
O203        O  0.51807559  0.69343260  0.87807742    -0.80600
O204        O  0.48519871  0.80659687  0.89024120    -0.80500
O205        O  0.53766776  0.74612300  0.91412178    -0.80500
O206        O  0.46861502  0.74660200  0.92039526    -0.80500
C207        C  0.45136261  0.76184554  0.91635654     1.09200
C208        C  0.55367332  0.73191112  0.90491673     1.09100
C209        C  0.51263781  0.69031156  0.90068098     1.09200
C210        C  0.49431120  0.80549186  0.91182670     1.09100
O211        O  0.49769099  0.78875145  0.84152856    -0.80500
O212        O  0.49691971  0.71783149  0.83500328    -0.80500
O213        O  0.44371305  0.73421456  0.87384243    -0.80500
O214        O  0.55696358  0.76741843  0.86836190    -0.80500
O215        O  0.53666041  0.75233532  0.83723929    -0.80500
O216        O  0.45921976  0.75579503  0.84384771    -0.80500
O217        O  0.52387170  0.80223350  0.86916263    -0.80400
O218        O  0.47630663  0.69979718  0.86467330    -0.80500
Co219      Co  0.47505577  0.77832542  0.86773227     1.51500
Co220      Co  0.52357655  0.72524951  0.85872048     1.51700
Co221      Co  0.47516918  0.72452572  0.89231361     1.51600
Co222      Co  0.52829416  0.77321782  0.89218705     1.51500
O223        O  0.50044671  0.75033039  0.87760415    -1.42400
C224        C  0.51444550  0.80374794  0.84760905     1.09200
C225        C  0.48306534  0.70027583  0.84228051     1.09200
C226        C  0.44130075  0.74375603  0.85254696     1.09200
C227        C  0.55636837  0.76211973  0.84549570     1.09200
C228        C  0.75632170  0.23075825  0.77205390     0.02000
C229        C  0.77257935  0.25079571  0.76547149     0.02000
C230        C  0.76637255  0.26683460  0.74494280     0.02000
C231        C  0.74579822  0.26025599  0.72893526     0.02000
C232        C  0.72957111  0.23986524  0.73563704     0.02000
C233        C  0.73593386  0.22415238  0.75627757     0.02000
O234        O  0.87994604  0.45037947  0.77376858    -0.80500
O235        O  0.88353860  0.55527812  0.73015140    -0.80500
O236        O  0.90944639  0.50093725  0.71317175    -0.80500
O237        O  0.90561263  0.50190178  0.79184843    -0.80400
O238        O  0.87992263  0.52130238  0.69503116    -0.80600
O239        O  0.87375180  0.48338700  0.80756612    -0.80500
O240        O  0.91081744  0.53743320  0.75476266    -0.80500
O241        O  0.90999717  0.46595064  0.75150721    -0.80500
C242        C  0.90234040  0.44986800  0.76682200     1.09200
C243        C  0.90528542  0.55436513  0.73950024     1.09100
C244        C  0.90161841  0.51230477  0.69429860     1.09200
C245        C  0.89595656  0.49072514  0.80991093     1.09100
O246        O  0.82786634  0.50056217  0.78396224    -0.80500
O247        O  0.83202047  0.50486466  0.71318484    -0.80500
O248        O  0.86468449  0.44572451  0.73209711    -0.80500
O249        O  0.86353407  0.55822694  0.76981607    -0.80500
O250        O  0.83353767  0.54248149  0.74831384    -0.80500
O251        O  0.83274088  0.46149238  0.74990344    -0.80500
O252        O  0.85595697  0.52322410  0.80300862    -0.80400
O253        O  0.86101798  0.48089521  0.69750104    -0.80500
Co254      Co  0.85402845  0.47664233  0.77600696     1.51500
Co255      Co  0.85750198  0.52851380  0.72434687     1.51700
Co256      Co  0.88570309  0.47614171  0.72595533     1.51600
Co257      Co  0.88369348  0.52756414  0.77740875     1.51500
O258        O  0.87014592  0.50221376  0.75079665    -1.42400
C259        C  0.83383734  0.51473974  0.80150312     1.09200
C260        C  0.83907017  0.48979641  0.69679829     1.09200
C261        C  0.84265943  0.44296760  0.73962776     1.09200
C262        C  0.84200433  0.56035115  0.76067680     1.09200
O263        O  0.99939911  0.21467290  0.33689697    -0.80500
O264        O  0.99800661  0.28490628  0.33408077    -0.80500
O265        O  0.94474632  0.23580376  0.37162560    -0.80500
O266        O  0.05781245  0.26987618  0.36405709    -0.80400
O267        O  0.96212145  0.25227614  0.33987747    -0.80600
O268        O  0.03792972  0.24964547  0.33566724    -0.80500
O269        O  0.02285329  0.30438827  0.35947353    -0.80500
O270        O  0.97755012  0.19977238  0.36789319    -0.80500
C271        C  0.98383245  0.19920104  0.34538300     1.09200
C272        C  0.01264490  0.30237747  0.33816173     1.09100
C273        C  0.94337428  0.24252122  0.34904317     1.09200
C274        C  0.05715252  0.26114435  0.34237144     1.09100
O275        O  0.05488812  0.22981349  0.38399820    -0.80500
O276        O  0.95087918  0.27463639  0.39036085    -0.80500
O277        O  0.00229618  0.21273437  0.41358692    -0.80500
O278        O  0.00544924  0.29183288  0.41058994    -0.80500
O279        O  0.98438673  0.30835502  0.38087038    -0.80500
O280        O  0.01999439  0.19533066  0.38192192    -0.80500
O281        O  0.03973888  0.25479571  0.41205412    -0.80400
O282        O  0.96978431  0.25190688  0.41810174    -0.80500
Co283      Co  0.02591089  0.22503306  0.36002106     1.51500
Co284      Co  0.97604062  0.27748332  0.36171099     1.51700
Co285      Co  0.97616750  0.22748923  0.39223622     1.51600
Co286      Co  0.02892770  0.27798856  0.38645431     1.51500
O287        O  0.00200322  0.25178934  0.37535034    -1.42400
C288        C  0.05604549  0.23944699  0.40552988     1.09200
C289        C  0.95228703  0.26613923  0.41248081     1.09200
C290        C  0.01297979  0.19418442  0.40421809     1.09200
C291        C  0.99334133  0.30988935  0.40235819     1.09200
C292        C  0.26682878  0.23017850  0.25510731     0.02000
C293        C  0.24671805  0.23541013  0.27169297     0.02000
C294        C  0.22970806  0.25528673  0.26623298     0.02000
C295        C  0.23480850  0.27204675  0.24599609     0.02000
C296        C  0.25499384  0.26703056  0.22935049     0.02000
C297        C  0.27182596  0.24697598  0.23493162     0.02000
O298        O  0.21743914  0.33810389  0.99500579    -0.80500
O299        O  0.28644815  0.33797358  0.99914162    -0.80500
O300        O  0.23729654  0.37345378  0.94148094    -0.80500
O301        O  0.26642778  0.36861343  0.05646067    -0.80400
O302        O  0.25477166  0.34201846  0.95917466    -0.80600
O303        O  0.24832762  0.33838179  0.03698164    -0.80500
O304        O  0.30336481  0.36516025  0.02404041    -0.80500
O305        O  0.20170052  0.36815191  0.97313215    -0.80500
C306        C  0.20228869  0.34544501  0.97870306     1.09200
C307        C  0.30312341  0.34351170  0.01450697     1.09100
C308        C  0.24470355  0.35119012  0.94018476     1.09200
C309        C  0.25851907  0.34660168  0.05642633     1.09100
O310        O  0.22545413  0.38504218  0.05046235    -0.80500
O311        O  0.27708135  0.39081352  0.94918724    -0.80500
O312        O  0.21177749  0.41543452  0.99688323    -0.80500
O313        O  0.29006785  0.41505559  0.00488221    -0.80500
O314        O  0.30837963  0.38536515  0.98501949    -0.80500
O315        O  0.19427919  0.38317267  0.01343177    -0.80500
O316        O  0.24943988  0.41510386  0.03696180    -0.80400
O317        O  0.25309799  0.41930050  0.96493167    -0.80500
Co318      Co  0.22409555  0.36159932  0.02175868     1.51500
Co319      Co  0.27898663  0.36425498  0.97534799     1.51700
Co320      Co  0.22830639  0.39373040  0.97206714     1.51600
Co321      Co  0.27526963  0.39082156  0.02783729     1.51500
O322        O  0.25167009  0.37789806  0.99942431    -1.42400
C323        C  0.23286194  0.40727434  0.05166236     1.09200
C324        C  0.26845578  0.41267251  0.94858639     1.09200
C325        C  0.19283680  0.40571737  0.00681019     1.09200
C326        C  0.30902672  0.40694100  0.99405836     1.09200
C327        C  0.24613238  0.26652073  0.76994079     0.02000
C328        C  0.22986298  0.24597466  0.76449165     0.02000
C329        C  0.23564044  0.22931272  0.74446093     0.02000
C330        C  0.25610819  0.23484826  0.72799962     0.02000
C331        C  0.27204953  0.25560811  0.73341094     0.02000
C332        C  0.26612085  0.27239045  0.75321060     0.02000
O333        O  0.55285839  0.27392523  0.61546249    -0.80500
O334        O  0.44652856  0.23191899  0.61169620    -0.80500
O335        O  0.50186926  0.21513746  0.58608337    -0.80500
O336        O  0.49971598  0.29116159  0.58744160    -0.80400
O337        O  0.48103464  0.19650986  0.61482039    -0.80600
O338        O  0.51826939  0.30858428  0.61816961    -0.80500
O339        O  0.46487438  0.25546992  0.58418634    -0.80500
O340        O  0.53530801  0.25254319  0.58626208    -0.80500
C341        C  0.55200642  0.26728116  0.59309926     1.09200
C342        C  0.44746888  0.24110966  0.58998486     1.09100
C343        C  0.49041581  0.19627308  0.59325782     1.09200
C344        C  0.51079251  0.30968476  0.59574240     1.09100
O345        O  0.50142596  0.28503616  0.66572795    -0.80500
O346        O  0.49722798  0.21551344  0.66274796    -0.80500
O347        O  0.55629026  0.23281033  0.63222527    -0.80500
O348        O  0.44416773  0.27175150  0.63147538    -0.80500
O349        O  0.46082838  0.25035791  0.66100277    -0.80500
O350        O  0.53932273  0.25214640  0.66281547    -0.80500
O351        O  0.47925134  0.30427536  0.63783693    -0.80400
O352        O  0.52100823  0.19847010  0.63495577    -0.80500
Co353      Co  0.52547985  0.27753544  0.64006497     1.51500
Co354      Co  0.47371284  0.22599453  0.63730249     1.51700
Co355      Co  0.52617867  0.22699631  0.61031545     1.51600
Co356      Co  0.47461656  0.27833375  0.61059344     1.51500
O357        O  0.50001281  0.25201638  0.62467992    -1.42400
C358        C  0.48727269  0.30241546  0.66001284     1.09200
C359        C  0.51111968  0.19802158  0.65647099     1.09200
C360        C  0.55772512  0.24059844  0.65428908     1.09200
C361        C  0.44272893  0.26266494  0.65301532     1.09200
O362        O  0.33148723  0.00344479  0.21611136    -0.80500
O363        O  0.33071907  0.99694658  0.28754435    -0.80500
O364        O  0.36276178  0.94372326  0.23038186    -0.80500
O365        O  0.36544224  0.05381511  0.27379633    -0.80400
O366        O  0.33249701  0.96126479  0.24986535    -0.80600
O367        O  0.33480481  0.03846673  0.25293215    -0.80500
O368        O  0.36017856  0.01772945  0.30574332    -0.80500
O369        O  0.35952209  0.98031521  0.19792660    -0.80500
C370        C  0.33766272  0.98931364  0.19866773     1.09200
C371        C  0.33771004  0.01070967  0.30516509     1.09100
C372        C  0.34073114  0.94278250  0.23831462     1.09200
C373        C  0.34359407  0.05617299  0.26519313     1.09100
O374        O  0.38435918  0.05236658  0.23355231    -0.80500
O375        O  0.38015448  0.94430134  0.27114823    -0.80500
O376        O  0.40873343  0.99852345  0.21416335    -0.80500
O377        O  0.40765877  0.99552255  0.29190634    -0.80500
O378        O  0.37594228  0.97624290  0.30708288    -0.80500
O379        O  0.37946128  0.01997882  0.19709226    -0.80500
O380        O  0.41223282  0.03265790  0.25581898    -0.80400
O381        O  0.40931636  0.96182812  0.24941213    -0.80500
Co382      Co  0.35779327  0.02609160  0.22736492     1.51500
Co383      Co  0.35521028  0.97219149  0.27639328     1.51700
Co384      Co  0.38476231  0.97359275  0.22539189     1.51600
Co385      Co  0.38603407  0.02247674  0.27922498     1.51500
O386        O  0.37096015  0.99859254  0.25212688    -1.42400
C387        C  0.40642916  0.05063981  0.24196512     1.09200
C388        C  0.40218305  0.94391942  0.26254890     1.09200
C389        C  0.40099073  0.01064203  0.19585303     1.09200
C390        C  0.39821882  0.98302199  0.30936993     1.09200
C391        C  0.49642225  0.02556791  0.51140140     0.02000
C392        C  0.48112464  0.01921374  0.49055011     0.02000
C393        C  0.48865640  0.99930700  0.47442340     0.02000
C394        C  0.51054153  0.98440509  0.47973483     0.02000
C395        C  0.52546932  0.99104111  0.50108769     0.02000
C396        C  0.51710876  0.00999915  0.51786904     0.02000
O397        O  0.46206538  0.74832221  0.41411777    -0.80500
O398        O  0.53220078  0.75847704  0.41889989    -0.80500
O399        O  0.49134695  0.69505173  0.38264903    -0.80500
O400        O  0.51043720  0.81069330  0.38255133    -0.80400
O401        O  0.50495211  0.71486364  0.41492739    -0.80600
O402        O  0.49137559  0.79329355  0.41322535    -0.80500
O403        O  0.54884762  0.78226016  0.39075309    -0.80500
O404        O  0.45163722  0.72287774  0.38391431    -0.80500
C405        C  0.44848102  0.73090717  0.40578797     1.09200
C406        C  0.54830170  0.77428531  0.41300512     1.09100
C407        C  0.49721821  0.69498406  0.40542769     1.09200
C408        C  0.50128403  0.81245898  0.40397908     1.09100
O409        O  0.47179715  0.80104308  0.36315545    -0.80500
O410        O  0.53168843  0.70544977  0.36858075    -0.80500
O411        O  0.46371454  0.74639744  0.33697833    -0.80500
O412        O  0.54166019  0.75894792  0.34172543    -0.80500
O413        O  0.55989401  0.74367603  0.37413494    -0.80500
O414        O  0.44253718  0.76289633  0.36704027    -0.80500
O415        O  0.49903228  0.78713677  0.33657160    -0.80400
O416        O  0.50883377  0.71916549  0.33775130    -0.80500
Co417      Co  0.47010636  0.77435835  0.38942138     1.51500
Co418      Co  0.52925240  0.73257602  0.39378687     1.51700
Co419      Co  0.48084766  0.72374066  0.36069226     1.51600
Co420      Co  0.52300866  0.78184773  0.36322549     1.51500
O421        O  0.50057368  0.75312640  0.37695281    -1.42400
C422        C  0.48177733  0.80200148  0.34181700     1.09200
C423        C  0.52594137  0.70518378  0.34575123     1.09200
C424        C  0.44347974  0.75529717  0.34496454     1.09200
C425        C  0.56101563  0.75024243  0.35151257     1.09200
O426        O  0.58128145  0.96424851  0.74865750    -0.80500
O427        O  0.58085168  0.03531072  0.74682299    -0.80500
O428        O  0.60780373  0.98303813  0.80689791    -0.80500
O429        O  0.61676415  0.01674496  0.69385770    -0.80400
O430        O  0.57857523  0.00127361  0.78635189    -0.80600
O431        O  0.58535227  0.99650334  0.70935255    -0.80500
O432        O  0.61175703  0.05207097  0.72688180    -0.80500
O433        O  0.60832115  0.94764376  0.77384163    -0.80500
C434        C  0.58712434  0.94730081  0.76340118     1.09200
C435        C  0.58899825  0.05231804  0.73290070     1.09100
C436        C  0.58548423  0.99036621  0.80591732     1.09200
C437        C  0.59478198  0.00846943  0.69151206     1.09100
O438        O  0.63368495  0.97596193  0.69972900    -0.80500
O439        O  0.62474810  0.02309138  0.80472752    -0.80500
O440        O  0.65902354  0.96372644  0.75809076    -0.80500
O441        O  0.65796455  0.03873432  0.75186239    -0.80500
O442        O  0.62544665  0.05546055  0.76891895    -0.80500
O443        O  0.63125670  0.94402673  0.73691979    -0.80500
O444        O  0.66218028  0.99882137  0.71740173    -0.80400
O445        O  0.65559168  0.00210878  0.78964991    -0.80500
Co446      Co  0.60800477  0.97267359  0.72600750     1.51500
Co447      Co  0.60287368  0.02617488  0.77433472     1.51700
Co448      Co  0.63251021  0.97625908  0.77945555     1.51600
Co449      Co  0.63671887  0.02424805  0.72518254     1.51500
O450        O  0.62000525  0.99997240  0.75106837    -1.42400
C451        C  0.65590309  0.98324846  0.70099970     1.09200
C452        C  0.64720445  0.01607758  0.80609514     1.09200
C453        C  0.65264875  0.94440338  0.74716041     1.09200
C454        C  0.64845668  0.05652495  0.76364757     1.09200
C455        C  0.51070762  0.99500699  0.97951956     0.02000
C456        C  0.49924281  0.97471782  0.99224870     0.02000
C457        C  0.48243667  0.98119030  0.01212353     0.02000
C458        C  0.48671558  0.00331257  0.02624402     0.02000
C459        C  0.50595182  0.01996910  0.01821168     0.02000
C460        C  0.51888378  0.01524437  0.99525377     0.02000
O461        O  0.46119237  0.24482890  0.08871469    -0.80500
O462        O  0.53162796  0.24142243  0.08641386    -0.80500
O463        O  0.48164808  0.30339250  0.11355547    -0.80500
O464        O  0.51365118  0.19044928  0.12482138    -0.80400
O465        O  0.49995522  0.28265528  0.08443670    -0.80600
O466        O  0.49308326  0.20573565  0.09363265    -0.80500
O467        O  0.54988570  0.22143304  0.11671640    -0.80500
O468        O  0.44561298  0.27066399  0.11525948    -0.80500
C469        C  0.44469788  0.26021421  0.09411062     1.09200
C470        C  0.54779872  0.22603445  0.09364455     1.09100
C471        C  0.48897748  0.30212640  0.09135625     1.09200
C472        C  0.50467593  0.18783784  0.10326500     1.09100
O473        O  0.47435075  0.19785440  0.14295843    -0.80500
O474        O  0.52362537  0.30083329  0.12984111    -0.80500
O475        O  0.46334126  0.25559594  0.16607001    -0.80500
O476        O  0.53908335  0.24812536  0.16290903    -0.80500
O477        O  0.55590199  0.26344843  0.12954031    -0.80500
O478        O  0.44220347  0.23427375  0.13948792    -0.80500
O479        O  0.49872732  0.21485930  0.17031767    -0.80400
O480        O  0.50131550  0.28863157  0.16152300    -0.80500
Co481      Co  0.47032520  0.22304405  0.11623777     1.51500
Co482      Co  0.52517287  0.26988317  0.10831113     1.51700
Co483      Co  0.47511463  0.27677468  0.13895440     1.51600
Co484      Co  0.52301762  0.22162897  0.14327923     1.51500
O485        O  0.49857089  0.24790891  0.12684817    -1.42400
C486        C  0.48256758  0.19866525  0.16486284     1.09200
C487        C  0.51646750  0.30374445  0.15211735     1.09200
C488        C  0.44362232  0.24471356  0.16058982     1.09200
C489        C  0.55762246  0.25796250  0.15239648     1.09200
O490        O  0.19698211  0.14131979  0.47873085    -0.80500
O491        O  0.30337727  0.13553633  0.51972195    -0.80500
O492        O  0.25181055  0.16302768  0.53939101    -0.80500
O493        O  0.25027118  0.16606663  0.46298767    -0.80400
O494        O  0.27011251  0.13061105  0.55446556    -0.80600
O495        O  0.23029769  0.13733800  0.44362743    -0.80500
O496        O  0.28592436  0.16581884  0.49941502    -0.80500
O497        O  0.21598740  0.16859294  0.50203717    -0.80500
C498        C  0.19830368  0.16303850  0.48772869     1.09200
C499        C  0.30224284  0.15844032  0.51453082     1.09100
C500        C  0.26379222  0.15303743  0.55693562     1.09200
C501        C  0.23910402  0.15908296  0.44387246     1.09100
O502        O  0.24653448  0.08964513  0.46305716    -0.80500
O503        O  0.25039518  0.08596989  0.53286966    -0.80500
O504        O  0.19380841  0.12216810  0.51834190    -0.80500
O505        O  0.30572703  0.12044690  0.47832724    -0.80500
O506        O  0.28933386  0.08875795  0.49691926    -0.80500
O507        O  0.21035085  0.09183904  0.49824264    -0.80500
O508        O  0.26985854  0.11740360  0.44520167    -0.80400
O509        O  0.22884250  0.11558037  0.55017518    -0.80500
Co510      Co  0.22330728  0.11509806  0.47327732     1.51500
Co511      Co  0.27575191  0.11061918  0.52337508     1.51700
Co512      Co  0.22521201  0.14208873  0.52500404     1.51600
Co513      Co  0.27557913  0.14214963  0.47363750     1.51500
O514        O  0.25004944  0.12731781  0.49885957    -1.42400
C515        C  0.26010036  0.09577353  0.44521536     1.09200
C516        C  0.23550965  0.09310387  0.54947756     1.09200
C517        C  0.19220066  0.10028802  0.51006628     1.09200
C518        C  0.30755370  0.09814176  0.48536751     1.09200
C519        C  0.76654765  0.77210856  0.25500558     0.02000
C520        C  0.77333431  0.75623052  0.23471660     0.02000
C521        C  0.75791316  0.73544841  0.22908538     0.02000
C522        C  0.73775720  0.72869524  0.24515979     0.02000
C523        C  0.73055658  0.74465880  0.26519288     0.02000
C524        C  0.74594678  0.76576032  0.27093709     0.02000
O525        O  0.62143920  0.54945125  0.28366963    -0.80500
O526        O  0.62003685  0.45476273  0.21908318    -0.80500
O527        O  0.59238478  0.51246910  0.21334807    -0.80500
O528        O  0.58975563  0.49415238  0.28667028    -0.80400
O529        O  0.62316002  0.49517910  0.19400349    -0.80600
O530        O  0.62024043  0.50845355  0.30912066    -0.80500
O531        O  0.58978237  0.46837597  0.24203704    -0.80500
O532        O  0.59167795  0.53863791  0.25818434    -0.80500
C533        C  0.59963110  0.55230690  0.27538377     1.09200
C534        C  0.59720912  0.45446317  0.22486354     1.09100
C535        C  0.60097204  0.50307497  0.19375153     1.09200
C536        C  0.59753195  0.50206863  0.30720235     1.09100
O537        O  0.66741070  0.49315306  0.28555913    -0.80500
O538        O  0.66938881  0.50913919  0.21907004    -0.80500
O539        O  0.63934384  0.56002142  0.24460765    -0.80500
O540        O  0.63537212  0.44357613  0.25862402    -0.80500
O541        O  0.66722371  0.46360842  0.24410201    -0.80500
O542        O  0.66911143  0.53819574  0.26128630    -0.80500
O543        O  0.63725021  0.46957950  0.29869143    -0.80400
O544        O  0.64105126  0.53382116  0.20406373    -0.80500
Co545      Co  0.64433083  0.52051258  0.28218503     1.51500
Co546      Co  0.64480332  0.48254755  0.22190032     1.51700
Co547      Co  0.61617186  0.53329895  0.23187749     1.51600
Co548      Co  0.61332402  0.47180897  0.26980048     1.51500
O549        O  0.62941166  0.50213164  0.25142958    -1.42400
C550        C  0.65955719  0.47707825  0.30035631     1.09200
C551        C  0.66316094  0.52569320  0.20379777     1.09200
C552        C  0.66162666  0.55841757  0.25209433     1.09200
C553        C  0.65793520  0.44354245  0.25189378     1.09200
C554        C  0.73245850  0.25885357  0.23135415     0.02000
C555        C  0.74683551  0.23695443  0.22537608     0.02000
C556        C  0.76716792  0.22914475  0.24126450     0.02000
C557        C  0.77357243  0.24340082  0.26283448     0.02000
C558        C  0.75775365  0.26358114  0.27010089     0.02000
C559        C  0.74106651  0.27408937  0.25164006     0.02000
C560        C  0.77390925  0.75044509  0.73969785     0.02000
C561        C  0.75632080  0.76837231  0.73099685     0.02000
C562        C  0.73448182  0.77378020  0.74514479     0.02000
C563        C  0.72812392  0.75774278  0.76589488     0.02000
C564        C  0.74823562  0.74390309  0.77759567     0.02000
C565        C  0.76904903  0.73649679  0.76187645     0.02000
O566        O  0.16844387  0.99442381  0.78167885    -0.80500
O567        O  0.16637254  0.00553647  0.71254225    -0.80500
O568        O  0.13679227  0.94150514  0.75706785    -0.80500
O569        O  0.13295865  0.05779967  0.73789136    -0.80400
O570        O  0.16685785  0.96276201  0.74081129    -0.80600
O571        O  0.16488241  0.03852117  0.75376189    -0.80500
O572        O  0.13661335  0.02941079  0.69899404    -0.80500
O573        O  0.13998411  0.96940891  0.79643215    -0.80500
C574        C  0.16217521  0.97722942  0.79631072     1.09200
C575        C  0.15883630  0.02158120  0.69729274     1.09100
C576        C  0.15920179  0.94257827  0.74957435     1.09200
C577        C  0.15548859  0.05805331  0.74467589     1.09100
O578        O  0.11782359  0.04741954  0.77810112    -0.80500
O579        O  0.11737976  0.95116136  0.71915525    -0.80500
O580        O  0.09125990  0.99140803  0.78819498    -0.80500
O581        O  0.08893737  0.00544558  0.70983891    -0.80500
O582        O  0.12029121  0.98944523  0.69067045    -0.80500
O583        O  0.12254671  0.00846833  0.80688719    -0.80500
O584        O  0.08792012  0.03329021  0.75425156    -0.80400
O585        O  0.08888923  0.96522392  0.74417421    -0.80500
Co586      Co  0.14316544  0.02029793  0.77730921     1.51500
Co587      Co  0.14248286  0.97908481  0.71874494     1.51700
Co588      Co  0.11436612  0.96970458  0.76944321     1.51600
Co589      Co  0.11194621  0.02860052  0.72726875     1.51500
O590        O  0.12787052  0.99959312  0.74824389    -1.42400
C591        C  0.09530453  0.04767309  0.77120149     1.09200
C592        C  0.09530266  0.95043047  0.72749469     1.09200
C593        C  0.10030863  0.00054469  0.80776253     1.09200
C594        C  0.09779805  0.99590052  0.69036383     1.09200
O595        O  0.75045037  0.40702119  0.53714314    -0.80500
O596        O  0.74435539  0.41245496  0.46877766    -0.80500
O597        O  0.80515249  0.37527465  0.51319985    -0.80500
O598        O  0.68982744  0.37766267  0.48879862    -0.80400
O599        O  0.78643683  0.40762664  0.49859733    -0.80600
O600        O  0.70912731  0.40704414  0.50767637    -0.80500
O601        O  0.72002842  0.38502179  0.45121651    -0.80500
O602        O  0.77494625  0.37783118  0.55086104    -0.80500
C603        C  0.76716284  0.40007966  0.55201318     1.09200
C604        C  0.72776354  0.40707556  0.45307056     1.09100
C605        C  0.80569891  0.39801604  0.50775076     1.09200
C606        C  0.68952337  0.39930416  0.49792930     1.09100
O607        O  0.69863594  0.35507990  0.52525037    -0.80500
O608        O  0.79767455  0.36108460  0.47212969    -0.80500
O609        O  0.75238500  0.33014769  0.53673309    -0.80500
O610        O  0.74330996  0.33676451  0.45752598    -0.80500
O611        O  0.76051565  0.36921840  0.44177086    -0.80500
O612        O  0.73525015  0.35991929  0.55734236    -0.80500
O613        O  0.71544617  0.32981669  0.49840009    -0.80400
O614        O  0.78153087  0.33100796  0.49410252    -0.80500
Co615      Co  0.72524655  0.38214282  0.52907767     1.51500
Co616      Co  0.77028851  0.38714792  0.47303753     1.51700
Co617      Co  0.77578501  0.35394604  0.52165163     1.51600
Co618      Co  0.71971766  0.35749700  0.47611284     1.51500
O619        O  0.74784468  0.37022939  0.49990858    -1.42400
C620        C  0.69950083  0.33396170  0.51455393     1.09200
C621        C  0.79714014  0.33821531  0.47823618     1.09200
C622        C  0.74278300  0.33784191  0.55653665     1.09200
C623        C  0.75312593  0.34720108  0.43912229     1.09200
C624        C  0.97258282  0.48564568  0.50482910     0.02000
C625        C  0.97904280  0.50650574  0.52021695     0.02000
C626        C  0.99925210  0.52253123  0.51274252     0.02000
C627        C  0.01452079  0.51580735  0.49190009     0.02000
C628        C  0.00711278  0.49597728  0.47589406     0.02000
C629        C  0.98749947  0.47960946  0.48342663     0.02000
O630        O  0.80117464  0.64047024  0.02814196    -0.80500
O631        O  0.69899496  0.63829317  0.97868531    -0.80500
O632        O  0.75103555  0.66774430  0.96633964    -0.80500
O633        O  0.74667086  0.66292814  0.04228911    -0.80400
O634        O  0.73518989  0.63711868  0.94591352    -0.80600
O635        O  0.76539477  0.63226722  0.05983747    -0.80500
O636        O  0.71421542  0.66593448  0.00446005    -0.80500
O637        O  0.78316063  0.66971430  0.00663763    -0.80500
C638        C  0.79934651  0.66318220  0.02227971     1.09200
C639        C  0.69873598  0.65988072  0.98810186     1.09100
C640        C  0.74142524  0.65971873  0.94665809     1.09200
C641        C  0.75729266  0.65425282  0.06092904     1.09100
O642        O  0.75296576  0.58568651  0.03416308    -0.80500
O643        O  0.75416008  0.59108964  0.96607022    -0.80500
O644        O  0.80814109  0.62624650  0.98711674    -0.80500
O645        O  0.69416445  0.61857028  0.01835175    -0.80500
O646        O  0.71220856  0.58931648  0.99759949    -0.80500
O647        O  0.79152467  0.59342176  0.00306862    -0.80500
O648        O  0.72763845  0.61130221  0.05266915    -0.80400
O649        O  0.77620629  0.62183058  0.95094016    -0.80500
Co650      Co  0.77556691  0.61328726  0.02878251     1.51500
Co651      Co  0.72732646  0.61408836  0.97468684     1.51700
Co652      Co  0.77701076  0.64586438  0.97986230     1.51600
Co653      Co  0.72333065  0.63957099  0.02741856     1.51500
O654        O  0.75071459  0.62804833  0.00254465    -1.42400
C655        C  0.73752885  0.58984890  0.05091120     1.09200
C656        C  0.76953370  0.59919756  0.95030062     1.09200
C657        C  0.80990803  0.60364487  0.99313846     1.09200
C658        C  0.69351180  0.59705144  0.00949105     1.09200
C659        C  0.51637061  0.49436027  0.02406105     0.02000
C660        C  0.52250385  0.51486825  0.00769300     0.02000
C661        C  0.50733928  0.51995825  0.98608109     0.02000
C662        C  0.48720222  0.50337466  0.97997775     0.02000
C663        C  0.48142173  0.48312477  0.99636096     0.02000
C664        C  0.49719717  0.47719082  0.01693686     0.02000
O665        O  0.78176981  0.16235565  0.99508106    -0.80500
O666        O  0.70988480  0.15677612  0.00133800    -0.80500
O667        O  0.75988755  0.12742700  0.94185241    -0.80500
O668        O  0.73577406  0.12619361  0.05652150    -0.80400
O669        O  0.74088543  0.15689603  0.96111749    -0.80600
O670        O  0.75143216  0.15835971  0.03793716    -0.80500
O671        O  0.69734136  0.12721130  0.02642524    -0.80500
O672        O  0.79822757  0.13376994  0.97153280    -0.80500
C673        C  0.79722851  0.15612388  0.97858910     1.09200
C674        C  0.69487850  0.14891701  0.01750030     1.09100
C675        C  0.75082289  0.14915854  0.94171089     1.09200
C676        C  0.74246305  0.14871146  0.05738127     1.09100
O677        O  0.77645913  0.11180224  0.04832420    -0.80500
O678        O  0.72311372  0.10517927  0.94997286    -0.80500
O679        O  0.79036107  0.08565506  0.99516666    -0.80500
O680        O  0.71239519  0.08017619  0.00398950    -0.80500
O681        O  0.69128548  0.10941611  0.98627414    -0.80500
O682        O  0.80739304  0.11766996  0.01182886    -0.80500
O683        O  0.75474470  0.08145365  0.03283061    -0.80400
O684        O  0.74963210  0.07939922  0.96672750    -0.80500
Co685      Co  0.77638294  0.13717854  0.02113537     1.51500
Co686      Co  0.71918223  0.13205599  0.97654081     1.51700
Co687      Co  0.77237075  0.10689263  0.97142693     1.51600
Co688      Co  0.72712634  0.10422649  0.02734723     1.51500
O689        O  0.74868380  0.12042138  0.99925626    -1.42400
C690        C  0.77115220  0.08891863  0.04761597     1.09200
C691        C  0.73316678  0.08374737  0.95100366     1.09200
C692        C  0.80896480  0.09511282  0.00558111     1.09200
C693        C  0.69257938  0.08737387  0.99379117     1.09200
O694        O  0.36631500  0.52590770  0.70038539    -0.80500
O695        O  0.37008717  0.47666246  0.80297260    -0.80500
O696        O  0.34074392  0.46299173  0.74996030    -0.80500
O697        O  0.34387711  0.54066051  0.75536400    -0.80400
O698        O  0.37211008  0.44376822  0.76627875    -0.80600
O699        O  0.37383893  0.55843291  0.73584156    -0.80500
O700        O  0.34237753  0.50237088  0.78770561    -0.80500
O701        O  0.33760810  0.50378346  0.71844941    -0.80500
C702        C  0.34376813  0.51930279  0.70212349     1.09200
C703        C  0.34857274  0.48658570  0.80378569     1.09100
C704        C  0.34968733  0.44347516  0.75920892     1.09200
C705        C  0.35191745  0.55945409  0.74449882     1.09100
O706        O  0.42174699  0.53363319  0.74768718    -0.80500
O707        O  0.41741024  0.46563704  0.74704638    -0.80500
O708        O  0.38144683  0.48534148  0.69285927    -0.80500
O709        O  0.39017777  0.51638574  0.80670557    -0.80500
O710        O  0.41908583  0.49622628  0.78772239    -0.80500
O711        O  0.41442928  0.50246644  0.70806506    -0.80500
O712        O  0.39601956  0.55167961  0.77324415    -0.80400
O713        O  0.38723356  0.44968750  0.72518013    -0.80500
Co714      Co  0.39377118  0.52748722  0.72539437     1.51500
Co715      Co  0.39428914  0.47317097  0.77390372     1.51700
Co716      Co  0.36230350  0.47769536  0.72430462     1.51600
Co717      Co  0.36828495  0.52572199  0.77805278     1.51500
O718        O  0.37971760  0.50087626  0.75047591    -1.42400
C719        C  0.41750676  0.55030131  0.76320839     1.09200
C720        C  0.40994016  0.44986311  0.73158409     1.09200
C721        C  0.40381810  0.49203961  0.69003051     1.09200
C722        C  0.41177609  0.50740049  0.80673848     1.09200
O723        O  0.77881112  0.88378817  0.45123278    -0.80500
O724        O  0.71963563  0.88572154  0.54982285    -0.80500
O725        O  0.71228611  0.91227432  0.49393988    -0.80500
O726        O  0.78747074  0.91314056  0.50712162    -0.80400
O727        O  0.69198554  0.88212546  0.51073093    -0.80600
O728        O  0.80737671  0.88223327  0.49075057    -0.80500
O729        O  0.74408973  0.91467086  0.53531227    -0.80500
O730        O  0.75348100  0.91304435  0.46384361    -0.80500
C731        C  0.77041061  0.90560682  0.44942539     1.09200
C732        C  0.72737323  0.90792152  0.55022457     1.09100
C733        C  0.69266069  0.90457475  0.50362661     1.09200
C734        C  0.80723923  0.90473438  0.49784764     1.09100
O735        O  0.78316219  0.83581434  0.50629037    -0.80500
O736        O  0.71776804  0.83444891  0.49794768    -0.80500
O737        O  0.73786347  0.86748307  0.44282124    -0.80500
O738        O  0.75934510  0.86859810  0.55962539    -0.80500
O739        O  0.74359446  0.83746444  0.54001324    -0.80500
O740        O  0.75617163  0.83665060  0.46139157    -0.80500
O741        O  0.79803370  0.86493058  0.53030704    -0.80400
O742        O  0.70021296  0.86138806  0.47340834    -0.80500
Co743      Co  0.77867820  0.85988580  0.47957291     1.51500
Co744      Co  0.72085968  0.86022719  0.52257346     1.51700
Co745      Co  0.72769968  0.88830622  0.47143331     1.51600
Co746      Co  0.77033208  0.89001832  0.53022054     1.51500
O747        O  0.74961934  0.87486399  0.50078021    -1.42400
C748        C  0.79835598  0.84269315  0.52262378     1.09200
C749        C  0.70150013  0.83935318  0.48231278     1.09200
C750        C  0.74570080  0.84560170  0.44223083     1.09200
C751        C  0.75238263  0.84611724  0.55968676     1.09200
O752        O  0.08228404  0.53531846  0.24662554    -0.80500
O753        O  0.07979640  0.46694027  0.25325342    -0.80500
O754        O  0.11554606  0.51178888  0.19229551    -0.80500
O755        O  0.11381053  0.48807647  0.30754625    -0.80400
O756        O  0.08365670  0.49636725  0.21126993    -0.80600
O757        O  0.08374171  0.50524314  0.28751576    -0.80500
O758        O  0.10778088  0.45016300  0.27741726    -0.80500
O759        O  0.11125214  0.54972506  0.22205423    -0.80500
C760        C  0.08905124  0.55032043  0.22976891     1.09200
C761        C  0.08567567  0.45088051  0.26919653     1.09100
C762        C  0.09300341  0.50524576  0.19181546     1.09200
C763        C  0.09171404  0.49611770  0.30730235     1.09100
O764        O  0.13490133  0.52559585  0.29884590    -0.80500
O765        O  0.13103691  0.47151720  0.20086321    -0.80500
O766        O  0.15921561  0.53873902  0.24509474    -0.80500
O767        O  0.15651404  0.45856665  0.25485979    -0.80500
O768        O  0.12469640  0.44117225  0.23783701    -0.80500
O769        O  0.12799147  0.55737870  0.26228899    -0.80500
O770        O  0.16159567  0.49950610  0.28303930    -0.80400
O771        O  0.16065229  0.49501583  0.21617153    -0.80500
Co772      Co  0.10751417  0.52807771  0.27200659     1.51500
Co773      Co  0.10512251  0.47175578  0.22776786     1.51700
Co774      Co  0.13643124  0.52172141  0.22164321     1.51600
Co775      Co  0.13463613  0.47619865  0.27809070     1.51500
O776        O  0.12108374  0.49949488  0.24974822    -1.42400
C777        C  0.15656044  0.51567094  0.29872793     1.09200
C778        C  0.15368197  0.47823364  0.20136883     1.09200
C779        C  0.15008681  0.55799364  0.25481182     1.09200
C780        C  0.14701395  0.43969211  0.24519120     1.09200
C781        C  0.48362281  0.49464659  0.51734486     0.02000
C782        C  0.47747205  0.51576354  0.50191092     0.02000
C783        C  0.49422034  0.52288171  0.48234337     0.02000
C784        C  0.51470828  0.50705414  0.47579827     0.02000
C785        C  0.52075209  0.48600698  0.49100361     0.02000
C786        C  0.50436216  0.47891390  0.51083245     0.02000
C787        C  0.98070369  0.49260420  0.98062752     0.02000
C788        C  0.00171734  0.47695475  0.98694409     0.02000
C789        C  0.01830079  0.48414758  0.00670058     0.02000
C790        C  0.01144714  0.50418197  0.02270569     0.02000
C791        C  0.99107616  0.52014458  0.01660292     0.02000
C792        C  0.97522781  0.51380403  0.99597448     0.02000
C793        C  0.02260447  0.50518957  0.04829958     0.01000
C794        C  0.03979987  0.52363833  0.05558300     0.03800
C795        C  0.04792192  0.52502499  0.08036260    -0.12200
C796        C  0.04096604  0.50671692  0.09756367     0.23100
C797        C  0.02456445  0.48792811  0.09042814    -0.12800
C798        C  0.01454510  0.48785795  0.06640089     0.04500
C799        C  0.05334431  0.50563095  0.12210106     0.27000
C800        C  0.07789057  0.49716967  0.12328338    -0.13500
C801        C  0.09110461  0.49830645  0.14563690     0.05100
C802        C  0.07905165  0.50542193  0.16788988    -0.09500
C803        C  0.05377033  0.51252727  0.16681327     0.05900
C804        C  0.04125199  0.51340036  0.14382891    -0.13800
Br805      Br  0.01578332  0.46221259  0.11374569    -0.05900
Br806      Br  0.05338221  0.54678059  0.03237455    -0.00300
Br807      Br  0.12583069  0.49025109  0.14442862     0.00200
Br808      Br  0.00766156  0.52553839  0.14189749    -0.04200
Br809      Br  0.98664631  0.46658170  0.06044793     0.00300
Br810      Br  0.06896153  0.55190747  0.09109500    -0.03500
Br811      Br  0.09319604  0.48345668  0.09392671    -0.04400
Br812      Br  0.03636126  0.52247108  0.19630334    -0.00400
C813        C  0.47171467  0.49262660  0.54295531     0.01000
C814        C  0.47773264  0.51051832  0.56128625     0.03800
C815        C  0.46670137  0.51004158  0.58498599    -0.12200
C816        C  0.45099142  0.49046501  0.59193228     0.23100
C817        C  0.44584817  0.47179986  0.57451551    -0.12800
C818        C  0.45532023  0.47323331  0.55009541     0.04500
C819        C  0.43910115  0.48997203  0.61714301     0.27000
C820        C  0.45306888  0.48472391  0.63869472    -0.13500
C821        C  0.44177411  0.48521034  0.66240660     0.05100
C822        C  0.41601379  0.49011165  0.66488913    -0.09500
C823        C  0.40185417  0.49353957  0.64283537     0.05900
C824        C  0.41347826  0.49440885  0.61945269    -0.13800
Br825      Br  0.42541376  0.44407604  0.58440461    -0.05900
Br826      Br  0.50395178  0.53390181  0.55604190    -0.00300
Br827      Br  0.46156952  0.47715877  0.69109613     0.00200
Br828      Br  0.39413946  0.50208157  0.59021629    -0.04200
Br829      Br  0.44438218  0.44845032  0.52741631     0.00300
Br830      Br  0.47321371  0.53644650  0.60815868    -0.03500
Br831      Br  0.48773606  0.47629710  0.63550502    -0.04400
Br832      Br  0.36620375  0.49675666  0.64338726    -0.00400
C833        C  0.47597526  0.50433982  0.95394301     0.01000
C834        C  0.45072478  0.51047392  0.94850963     0.03800
C835        C  0.44170578  0.50977954  0.92393814    -0.12200
C836        C  0.45808709  0.50672502  0.90401761     0.23100
C837        C  0.48319953  0.50206194  0.90891218    -0.12800
C838        C  0.49137680  0.49840585  0.93345684     0.04500
C839        C  0.44850415  0.50713460  0.87804162     0.27000
C840        C  0.44470911  0.48476625  0.86519511    -0.13500
C841        C  0.43364564  0.48486549  0.84146594     0.05100
C842        C  0.42641159  0.50742657  0.83022772    -0.09500
C843        C  0.42903165  0.52952416  0.84383400     0.05900
C844        C  0.44074664  0.52956074  0.86716704    -0.13800
Br845      Br  0.50638506  0.50079167  0.88178048    -0.05900
Br846      Br  0.42722836  0.52107688  0.97267441    -0.00300
Br847      Br  0.42359688  0.45382973  0.82704915     0.00200
Br848      Br  0.44485675  0.56022980  0.88497323    -0.04200
Br849      Br  0.52187753  0.48066385  0.93805299     0.00300
Br850      Br  0.40650044  0.51268789  0.91724747    -0.03500
Br851      Br  0.45263510  0.45377425  0.88122513    -0.04400
Br852      Br  0.41367494  0.55925376  0.83198186    -0.00400
C853        C  0.83402552  0.59033324  0.99095803     0.01000
C854        C  0.83471485  0.56470807  0.98553835     0.03800
C855        C  0.85760093  0.55214468  0.98460543    -0.12200
C856        C  0.87994120  0.56493607  0.98898195     0.23100
C857        C  0.87944691  0.59046273  0.99366024    -0.12800
C858        C  0.85669788  0.60303482  0.99518524     0.04500
C859        C  0.90396986  0.55148188  0.99005631     0.27000
C860        C  0.91006753  0.53746650  0.01110219    -0.13500
C861        C  0.93250666  0.52428358  0.01202096     0.05100
C862        C  0.95076834  0.52735825  0.99333470    -0.09500
C863        C  0.94470666  0.54247704  0.97256273     0.05900
C864        C  0.92098318  0.55333832  0.97049159    -0.13800
Br865      Br  0.91023729  0.60818826  0.99831745    -0.05900
Br866      Br  0.80462698  0.54636918  0.97912710    -0.00300
Br867      Br  0.93520921  0.49837428  0.03635472     0.00200
Br868      Br  0.91132058  0.57090654  0.94077408    -0.04200
Br869      Br  0.85749421  0.63715105  0.00547475     0.00300
Br870      Br  0.85847457  0.51725004  0.97739225    -0.03500
Br871      Br  0.88736373  0.53612132  0.03872204    -0.04400
Br872      Br  0.96786700  0.54929943  0.94657500    -0.00400
C873        C  0.66951844  0.58306133  0.01078888     0.01000
C874        C  0.65760737  0.57530066  0.98883384     0.03800
C875        C  0.63433902  0.56335754  0.98974178    -0.12200
C876        C  0.62182503  0.56021435  0.01247356     0.23100
C877        C  0.63293854  0.56923323  0.03431255    -0.12800
C878        C  0.65634331  0.58100070  0.03342871     0.04500
C879        C  0.59640481  0.54883417  0.01306043     0.27000
C880        C  0.57514730  0.56375714  0.01559684    -0.13500
C881        C  0.55110252  0.55313777  0.01555818     0.05100
C882        C  0.54774589  0.52738888  0.01077165    -0.09500
C883        C  0.56946794  0.51299700  0.00696657     0.05900
C884        C  0.59338016  0.52328562  0.00951986    -0.13800
Br885      Br  0.61569935  0.56600785  0.06546900    -0.05900
Br886      Br  0.67047075  0.58542333  0.95714645    -0.00300
Br887      Br  0.52395796  0.57517160  0.02175887     0.00200
Br888      Br  0.62231324  0.50242223  0.00689091    -0.04200
Br889      Br  0.66922611  0.59580161  0.06321177     0.00300
Br890      Br  0.61915338  0.55221734  0.95944696    -0.03500
Br891      Br  0.57916772  0.59924750  0.01794131    -0.04400
Br892      Br  0.56719043  0.48055454  0.99273146    -0.00400
C893        C  0.07659584  0.49726073  0.33050296     0.01000
C894        C  0.05249137  0.48697361  0.33165262     0.03800
C895        C  0.03968504  0.48576964  0.35444181    -0.12200
C896        C  0.05009501  0.49632748  0.37593531     0.23100
C897        C  0.07288427  0.50886121  0.37424169    -0.12800
C898        C  0.08598797  0.50938273  0.35173918     0.04500
C899        C  0.03746203  0.49454164  0.40049040     0.27000
C900        C  0.01866434  0.51125699  0.40687817    -0.13500
C901        C  0.00890010  0.51141156  0.43113029     0.05100
C902        C  0.01779812  0.49481717  0.44971811    -0.09500
C903        C  0.03619012  0.47740083  0.44253361     0.05900
C904        C  0.04574824  0.47728778  0.41815915    -0.13800
Br905      Br  0.08594378  0.52577072  0.40294990    -0.05900
Br906      Br  0.03628274  0.47545348  0.30208946    -0.00300
Br907      Br  0.98129742  0.53293340  0.43712697     0.00200
Br908      Br  0.07047146  0.45334275  0.40840332    -0.04200
Br909      Br  0.11506328  0.52967635  0.34980407     0.00300
Br910      Br  0.00799412  0.46940149  0.35631592    -0.03500
Br911      Br  0.00600028  0.53371366  0.38189840    -0.04400
Br912      Br  0.04899380  0.45318763  0.46501279    -0.00400
C913        C  0.66590963  0.41420555  0.49890893     0.01000
C914        C  0.66440193  0.43823309  0.48851281     0.03800
C915        C  0.64105325  0.44972412  0.48496337    -0.12200
C916        C  0.61933137  0.43884631  0.49463049     0.23100
C917        C  0.62137110  0.41681029  0.50837332    -0.12800
C918        C  0.64433688  0.40438487  0.51018525     0.04500
C919        C  0.59466115  0.45150837  0.49236340     0.27000
C920        C  0.58813717  0.47014510  0.50911338    -0.13500
C921        C  0.56462977  0.48154703  0.50780338     0.05100
C922        C  0.54662228  0.47432551  0.48994091    -0.09500
C923        C  0.55376742  0.45575716  0.47263864     0.05900
C924        C  0.57742117  0.44430363  0.47418757    -0.13800
Br925      Br  0.59274021  0.40454402  0.52590309    -0.05900
Br926      Br  0.69410511  0.45637369  0.48081532    -0.00300
Br927      Br  0.55863317  0.50863765  0.52975904     0.00200
Br928      Br  0.58643646  0.41797469  0.45179379    -0.04200
Br929      Br  0.64659726  0.37616132  0.53161351     0.00300
Br930      Br  0.63865724  0.48032825  0.46671079    -0.03500
Br931      Br  0.61161106  0.47960928  0.53445481    -0.04400
Br932      Br  0.53266435  0.44549415  0.44605576    -0.00400
C933        C  0.94749553  0.47307562  0.50785532     0.01000
C934        C  0.94124806  0.45740558  0.52821798     0.03800
C935        C  0.91695263  0.44792747  0.53076831    -0.12200
C936        C  0.89926050  0.45166406  0.51200237     0.23100
C937        C  0.90525702  0.46652352  0.49156690    -0.12800
C938        C  0.92848221  0.47829683  0.49030459     0.04500
C939        C  0.87523030  0.43807734  0.51250561     0.27000
C940        C  0.87500920  0.41283077  0.50656175    -0.13500
C941        C  0.85249390  0.39980262  0.50534437     0.05100
C942        C  0.82955141  0.41204383  0.50976789    -0.09500
C943        C  0.82991990  0.43756888  0.51570649     0.05900
C944        C  0.85272108  0.45034894  0.51749471    -0.13800
Br945      Br  0.88145115  0.47066725  0.46504597    -0.05900
Br946      Br  0.96468823  0.44755539  0.55300586    -0.00300
Br947      Br  0.85417794  0.36546152  0.49586247     0.00200
Br948      Br  0.85333164  0.48475448  0.52684035    -0.04200
Br949      Br  0.93162957  0.50489057  0.46692819     0.00300
Br950      Br  0.90754170  0.42927130  0.55991992    -0.03500
Br951      Br  0.90595335  0.39617962  0.49937020    -0.04400
Br952      Br  0.79952493  0.45545551  0.52166866    -0.00400
C953        C  0.75821740  0.77731673  0.70443283     0.01000
C954        C  0.74681665  0.76337537  0.68523844     0.03800
C955        C  0.74613226  0.77251829  0.66068080    -0.12200
C956        C  0.75976119  0.79376351  0.65418318     0.23100
C957        C  0.77369064  0.80587012  0.67257100    -0.12800
C958        C  0.77097688  0.79924542  0.69768631     0.04500
C959        C  0.75648878  0.80578560  0.62934912     0.27000
C960        C  0.76614232  0.79520921  0.60755508    -0.13500
C961        C  0.76270803  0.80709404  0.58439069     0.05100
C962        C  0.75237565  0.83118430  0.58321390    -0.09500
C963        C  0.74230443  0.84131014  0.60511712     0.05900
C964        C  0.74341227  0.82827784  0.62767947    -0.13800
Br965      Br  0.79583581  0.83236986  0.66318759    -0.05900
Br966      Br  0.72791793  0.73406009  0.69282147    -0.00300
Br967      Br  0.77248303  0.79017881  0.55465997     0.00200
Br968      Br  0.72649328  0.84115269  0.65643868    -0.04200
Br969      Br  0.78118641  0.82307105  0.72176250     0.00300
Br970      Br  0.72405906  0.75775313  0.63666603    -0.03500
Br971      Br  0.78508585  0.76504206  0.60965919    -0.04400
Br972      Br  0.72553127  0.87251352  0.60460502    -0.00400
C973        C  0.74822701  0.73761862  0.80579675     0.01000
C974        C  0.73496691  0.75062735  0.82498112     0.03800
C975        C  0.73244829  0.73981128  0.84908051    -0.12200
C976        C  0.74150180  0.71573028  0.85376906     0.23100
C977        C  0.75499056  0.70417032  0.83494681    -0.12800
C978        C  0.76323147  0.71827534  0.81484925     0.04500
C979        C  0.73989751  0.70352326  0.87881556     0.27000
C980        C  0.75995250  0.70540860  0.89557403    -0.13500
C981        C  0.76084435  0.69041327  0.91702258     0.05100
C982        C  0.74039869  0.67540777  0.92371772    -0.09500
C983        C  0.72025213  0.67363160  0.90702211     0.05900
C984        C  0.72051595  0.68686436  0.88436065    -0.13800
Br985      Br  0.76775804  0.67149670  0.83945917    -0.05900
Br986      Br  0.72148806  0.78336816  0.82072429    -0.00300
Br987      Br  0.79209831  0.68678036  0.93407129     0.00200
Br988      Br  0.69580723  0.68005249  0.85967296    -0.04200
Br989      Br  0.79610445  0.72899244  0.82226456     0.00300
Br990      Br  0.71678672  0.75756585  0.87571300    -0.03500
Br991      Br  0.78725898  0.72732912  0.88837768    -0.04400
Br992      Br  0.69281221  0.65196635  0.91446218    -0.00400
C993        C  0.74194424  0.16222525  0.08193162     0.01000
C994        C  0.73659453  0.18788443  0.08330387     0.03800
C995        C  0.73605332  0.20013528  0.10648853    -0.12200
C996        C  0.74024481  0.18700211  0.12875187     0.23100
C997        C  0.74443619  0.16137134  0.12766851    -0.12800
C998        C  0.74574137  0.14914076  0.10463055     0.04500
C999        C  0.74119633  0.20010445  0.15328338     0.27000
C1000       C  0.76237188  0.21376878  0.15994638    -0.13500
C1001       C  0.76315550  0.22675081  0.18255540     0.05100
C1002       C  0.74403891  0.22406603  0.20047453    -0.09500
C1003       C  0.72291080  0.20978209  0.19379807     0.05900
C1004       C  0.72117756  0.19884141  0.17002237    -0.13800
Br1005     Br  0.74819371  0.14286927  0.15818268    -0.05900
Br1006     Br  0.72766123  0.20612175  0.05386239    -0.00300
Br1007     Br  0.78765969  0.25244355  0.18595861     0.00200
Br1008     Br  0.69095483  0.18266624  0.15978403    -0.04200
Br1009     Br  0.75370039  0.11439456  0.10537350     0.00300
Br1010     Br  0.72890293  0.23502092  0.10801301    -0.03500
Br1011     Br  0.79029409  0.21518285  0.13763145    -0.04400
Br1012     Br  0.69549969  0.20555326  0.21608804    -0.00400
C1013       C  0.75690420  0.27219037  0.29727680     0.01000
C1014       C  0.73498448  0.27046315  0.31150817     0.03800
C1015       C  0.73212806  0.28558568  0.33280209    -0.12200
C1016       C  0.75243948  0.29976869  0.34163351     0.23100
C1017       C  0.77526119  0.29759436  0.32906655    -0.12800
C1018       C  0.77792621  0.27883582  0.31138897     0.04500
C1019       C  0.75184316  0.31201220  0.36653826     0.27000
C1020       C  0.75204625  0.33795311  0.36857510    -0.13500
C1021       C  0.75252726  0.34937255  0.39200627     0.05100
C1022       C  0.75371107  0.33500105  0.41411122    -0.09500
C1023       C  0.75493175  0.30893591  0.41189798     0.05900
C1024       C  0.75356898  0.29759087  0.38838506    -0.13800
Br1025     Br  0.80457426  0.31439834  0.34046956    -0.05900
Br1026     Br  0.71811400  0.23913598  0.31138166    -0.00300
Br1027     Br  0.75119236  0.38496963  0.39264652     0.00200
Br1028     Br  0.75509905  0.26200967  0.38623946    -0.04200
Br1029     Br  0.78927246  0.25191583  0.33146083     0.00300
Br1030     Br  0.70100720  0.28594641  0.35016718    -0.03500
Br1031     Br  0.75258843  0.35825431  0.33917286    -0.04400
Br1032     Br  0.76060439  0.28835426  0.44068721    -0.00400
C1033       C  0.71974595  0.42514075  0.43421116     0.01000
C1034       C  0.69468261  0.42563670  0.42620990     0.03800
C1035       C  0.68769501  0.44126554  0.40683614    -0.12200
C1036       C  0.70603575  0.45193843  0.39181757     0.23100
C1037       C  0.73106166  0.45112647  0.39901317    -0.12800
C1038       C  0.73776890  0.43908998  0.42113577     0.04500
C1039       C  0.69899145  0.45887943  0.36642818     0.27000
C1040       C  0.69133894  0.43994783  0.35028455    -0.13500
C1041       C  0.67778043  0.44578284  0.32902430     0.05100
C1042       C  0.67457163  0.47068625  0.32213056    -0.09500
C1043       C  0.68413383  0.48979493  0.33736266     0.05900
C1044       C  0.69597752  0.48380848  0.35976831    -0.13800
Br1045     Br  0.75627125  0.46353459  0.37692558    -0.05900
Br1046     Br  0.66996098  0.40272346  0.43826555    -0.00300
Br1047     Br  0.66176602  0.41941584  0.31122481     0.00200
Br1048     Br  0.70681546  0.50956757  0.38201292    -0.04200
Br1049     Br  0.77247734  0.43794819  0.43023949     0.00300
Br1050     Br  0.65299140  0.44554093  0.39875765    -0.03500
Br1051     Br  0.69811105  0.40573280  0.35814498    -0.04400
Br1052     Br  0.67835610  0.52428433  0.32961999    -0.00400
C1053       C  0.73408121  0.57144091  0.07090893     0.01000
C1054       C  0.71491569  0.55398358  0.06962263     0.03800
C1055       C  0.70471421  0.54451730  0.09158962    -0.12200
C1056       C  0.71624883  0.54971374  0.11442800     0.23100
C1057       C  0.73904537  0.56237037  0.11481927    -0.12800
C1058       C  0.74799694  0.57329863  0.09296459     0.04500
C1059       C  0.70379904  0.54362073  0.13802463     0.27000
C1060       C  0.68794490  0.56115595  0.14880013    -0.13500
C1061       C  0.67663303  0.55625819  0.17161981     0.05100
C1062       C  0.67978508  0.53290583  0.18314252    -0.09500
C1063       C  0.69640887  0.51549912  0.17255104     0.05900
C1064       C  0.70852567  0.52109460  0.15017193    -0.13800
Br1065     Br  0.75700816  0.56597726  0.14553698    -0.05900
Br1066     Br  0.70508485  0.54091469  0.03810025    -0.00300
Br1067     Br  0.65749254  0.58229728  0.18699125     0.00200
Br1068     Br  0.73111426  0.49764194  0.13556655    -0.04200
Br1069     Br  0.77972118  0.58963102  0.09311902     0.00300
Br1070     Br  0.67382308  0.52675378  0.09041814    -0.03500
Br1071     Br  0.68080561  0.59166176  0.13170199    -0.04400
Br1072     Br  0.70201004  0.48323508  0.18715855    -0.00400
C1073       C  0.58651630  0.50253882  0.16980595     0.01000
C1074       C  0.59932502  0.50252780  0.14671997     0.03800
C1075       C  0.58629912  0.50024859  0.12420604    -0.12200
C1076       C  0.56026839  0.49850147  0.12396670     0.23100
C1077       C  0.54727769  0.49889423  0.14661805    -0.12800
C1078       C  0.56017081  0.50137376  0.16937486     0.04500
C1079       C  0.54695715  0.49631477  0.09965212     0.27000
C1080       C  0.53398989  0.51649038  0.08953969    -0.13500
C1081       C  0.52211906  0.51428635  0.06634635     0.05100
C1082       C  0.52713940  0.49401510  0.05035098    -0.09500
C1083       C  0.54114256  0.47402882  0.06066185     0.05900
C1084       C  0.54875931  0.47446910  0.08575460    -0.13800
Br1085     Br  0.51171134  0.49480888  0.14638376    -0.05900
Br1086     Br  0.63489039  0.50678205  0.14459713    -0.00300
Br1087     Br  0.49557722  0.53692307  0.05941983     0.00200
Br1088     Br  0.56179634  0.44507266  0.10160114    -0.04200
Br1089     Br  0.54110843  0.50295465  0.19956759     0.00300
Br1090     Br  0.60434888  0.49909493  0.09326071    -0.03500
Br1091     Br  0.53271914  0.54739564  0.10733280    -0.04400
Br1092     Br  0.55239581  0.44638353  0.04171097    -0.00400
C1093       C  0.52568176  0.50928762  0.44994220     0.01000
C1094       C  0.54921481  0.52009729  0.44480867     0.03800
C1095       C  0.55808297  0.52172276  0.42021071    -0.12200
C1096       C  0.54504292  0.51042796  0.40068618     0.23100
C1097       C  0.52214500  0.49911825  0.40556421    -0.12800
C1098       C  0.51216508  0.49933229  0.42966001     0.04500
C1099       C  0.55702103  0.50726496  0.37594746     0.27000
C1100       C  0.54867091  0.52039784  0.35489771    -0.13500
C1101       C  0.55990545  0.51645285  0.33159559     0.05100
C1102       C  0.58137744  0.50156545  0.32974831    -0.09500
C1103       C  0.58822401  0.48693954  0.35041157     0.05900
C1104       C  0.57587480  0.48948627  0.37319875    -0.13800
Br1105     Br  0.50552118  0.48119386  0.37942474    -0.05900
Br1106     Br  0.57135029  0.53064974  0.47044147    -0.00300
Br1107     Br  0.54524199  0.53074864  0.30239126     0.00200
Br1108     Br  0.58408626  0.46790057  0.40061132    -0.04200
Br1109     Br  0.48134265  0.48233789  0.43471282     0.00300
Br1110     Br  0.58878664  0.53877380  0.41297243    -0.03500
Br1111     Br  0.52219000  0.54411064  0.35814600    -0.04400
Br1112     Br  0.61238648  0.46111259  0.34707463    -0.00400
C1113       C  0.73406450  0.30166436  0.25123660     0.01000
C1114       C  0.73083148  0.31601761  0.27259407     0.03800
C1115       C  0.71369424  0.33556974  0.27145909    -0.12200
C1116       C  0.71099361  0.34880680  0.24906749     0.23100
C1117       C  0.72256467  0.33908694  0.22774791    -0.12800
C1118       C  0.73472239  0.31580657  0.22905430     0.04500
C1119       C  0.69804757  0.37341974  0.24865140     0.27000
C1120       C  0.67290049  0.37471253  0.24203543    -0.13500
C1121       C  0.65974361  0.39720271  0.24377291     0.05100
C1122       C  0.67199965  0.41946009  0.25079872    -0.09500
C1123       C  0.69749767  0.41814651  0.25711598     0.05900
C1124       C  0.71032378  0.39527303  0.25616975    -0.13800
Br1125     Br  0.72232300  0.35765567  0.19728264    -0.05900
Br1126     Br  0.76198964  0.33002426  0.28235148    -0.00300
Br1127     Br  0.62464306  0.39624661  0.23691086     0.00200
Br1128     Br  0.74483880  0.39384429  0.26538286    -0.04200
Br1129     Br  0.76036375  0.30903201  0.20559342     0.00300
Br1130     Br  0.69897107  0.34718914  0.30152345    -0.03500
Br1131     Br  0.65647633  0.34523657  0.23046552    -0.04400
Br1132     Br  0.71445249  0.44696557  0.26972425    -0.00400
C1133       C  0.74455555  0.83262513  0.41784233     0.01000
C1134       C  0.72213513  0.83233110  0.40401749     0.03800
C1135       C  0.72128342  0.82166869  0.38023438    -0.12200
C1136       C  0.74308921  0.81262019  0.36909830     0.23100
C1137       C  0.76584956  0.81507574  0.38186566    -0.12800
C1138       C  0.76653662  0.82474505  0.40610287     0.04500
C1139       C  0.74224948  0.80082213  0.34399088     0.27000
C1140       C  0.74719306  0.77543601  0.34147049    -0.13500
C1141       C  0.74980018  0.76493295  0.31779002     0.05100
C1142       C  0.74307703  0.77823967  0.29605468    -0.09500
C1143       C  0.73604810  0.80344594  0.29905027     0.05900
C1144       C  0.73764225  0.81496017  0.32250479    -0.13800
Br1145     Br  0.79648713  0.80696188  0.36542534    -0.05900
Br1146     Br  0.69241282  0.84753807  0.41674769    -0.00300
Br1147     Br  0.76885461  0.73503664  0.31576717     0.00200
Br1148     Br  0.73514867  0.85053541  0.32506473    -0.04200
Br1149     Br  0.79817734  0.83058986  0.42147663     0.00300
Br1150     Br  0.69015744  0.82032257  0.36261802    -0.03500
Br1151     Br  0.75168226  0.75509560  0.37062090    -0.04400
Br1152     Br  0.72390654  0.82319273  0.27215465    -0.00400
C1153       C  0.75992617  0.72320808  0.20401064     0.01000
C1154       C  0.74229750  0.72945378  0.18542153     0.03800
C1155       C  0.74390334  0.71941231  0.16153924    -0.12200
C1156       C  0.76375518  0.70392300  0.15528216     0.23100
C1157       C  0.78167061  0.69780991  0.17318319    -0.12800
C1158       C  0.77964558  0.70699290  0.19751569     0.04500
C1159       C  0.76357707  0.69142947  0.13091081     0.27000
C1160       C  0.75256393  0.66798706  0.12934118    -0.13500
C1161       C  0.74870689  0.65709061  0.10621737     0.05100
C1162       C  0.75790904  0.66827019  0.08451258    -0.09500
C1163       C  0.76705406  0.69272698  0.08580879     0.05900
C1164       C  0.77050979  0.70402489  0.10906387    -0.13800
Br1165     Br  0.80860604  0.67603282  0.16415871    -0.05900
Br1166     Br  0.71827530  0.75520306  0.19040623    -0.00300
Br1167     Br  0.72523903  0.63063018  0.10410379     0.00200
Br1168     Br  0.78411134  0.73690072  0.11095858    -0.04200
Br1169     Br  0.80430043  0.69654643  0.22086867     0.00300
Br1170     Br  0.71872059  0.72684859  0.13703414    -0.03500
Br1171     Br  0.74147497  0.65128041  0.15897773    -0.04400
Br1172     Br  0.77187432  0.71201299  0.05615349    -0.00400
C1173       C  0.67729620  0.58124744  0.25186705     0.01000
C1174       C  0.66802680  0.60314756  0.26275142     0.03800
C1175       C  0.68009426  0.62587616  0.25940080    -0.12200
C1176       C  0.70109799  0.62744789  0.24412055     0.23100
C1177       C  0.71098232  0.60568512  0.23370188    -0.12800
C1178       C  0.69994390  0.58247611  0.23878004     0.04500
C1179       C  0.71290572  0.65210336  0.24043498     0.27000
C1180       C  0.69987776  0.67070847  0.22763401    -0.13500
C1181       C  0.70605222  0.69579757  0.23112575     0.05100
C1182       C  0.72826539  0.70239594  0.24363728    -0.09500
C1183       C  0.74273247  0.68305163  0.25421227     0.05900
C1184       C  0.73424603  0.65840912  0.25395111    -0.13800
Br1185     Br  0.73872460  0.60790366  0.21141783    -0.05900
Br1186     Br  0.63970007  0.60254191  0.28397891    -0.00300
Br1187     Br  0.68126075  0.71961948  0.22228810     0.00200
Br1188     Br  0.75040297  0.63365188  0.27425198    -0.04200
Br1189     Br  0.71655029  0.55273603  0.22864174     0.00300
Br1190     Br  0.66759541  0.65517263  0.27580268    -0.03500
Br1191     Br  0.67219834  0.66153391  0.20677898    -0.04400
Br1192     Br  0.77259305  0.69002189  0.27245456    -0.00400
C1193       C  0.17414871  0.02779503  0.67507500     0.01000
C1194       C  0.20023071  0.02360697  0.67509656     0.03800
C1195       C  0.21405942  0.02681610  0.65318839    -0.12200
C1196       C  0.20208780  0.03371799  0.63115165     0.23100
C1197       C  0.17624671  0.03652698  0.63066192    -0.12800
C1198       C  0.16255068  0.03564580  0.65264953     0.04500
C1199       C  0.21588050  0.04714582  0.61173716     0.27000
C1200       C  0.21657182  0.07294602  0.61415270    -0.13500
C1201       C  0.22097162  0.08788703  0.59353417     0.05100
C1202       C  0.22782244  0.07701181  0.57049904    -0.09500
C1203       C  0.22768218  0.05084868  0.56830322     0.05900
C1204       C  0.22181139  0.03601665  0.58902374    -0.13800
Br1205     Br  0.16026336  0.04457861  0.59963580    -0.05900
Br1206     Br  0.21812216  0.01693210  0.70541575    -0.00300
Br1207     Br  0.21428976  0.12298313  0.59812913     0.00200
Br1208     Br  0.22063055  0.00051745  0.58625485    -0.04200
Br1209     Br  0.12862208  0.04769063  0.65080117     0.00300
Br1210     Br  0.24973355  0.02395678  0.65334474    -0.03500
Br1211     Br  0.20876394  0.08790408  0.64577765    -0.04400
Br1212     Br  0.23143368  0.03524151  0.53641776    -0.00400
C1213       C  0.52413222  0.32630457  0.16587675     0.01000
C1214       C  0.53866173  0.32458596  0.18758891     0.03800
C1215       C  0.55039856  0.34588124  0.19707076    -0.12200
C1216       C  0.54510973  0.36931427  0.18677717     0.23100
C1217       C  0.52790172  0.37141341  0.16740444    -0.12800
C1218       C  0.51804804  0.35004682  0.15651659     0.04500
C1219       C  0.55738418  0.39199297  0.19607414     0.27000
C1220       C  0.54891125  0.40337480  0.21781670    -0.13500
C1221       C  0.56099248  0.42453230  0.22705046     0.05100
C1222       C  0.58075434  0.43545150  0.21346649    -0.09500
C1223       C  0.58707954  0.42539493  0.19004825     0.05900
C1224       C  0.57604503  0.40334746  0.18189228    -0.13800
Br1225     Br  0.51803745  0.40390069  0.15579914    -0.05900
Br1226     Br  0.54210008  0.29349755  0.20474885    -0.00300
Br1227     Br  0.55086290  0.43673594  0.25907014     0.00200
Br1228     Br  0.58635994  0.38865565  0.15097890    -0.04200
Br1229     Br  0.49486470  0.35429488  0.12997850     0.00300
Br1230     Br  0.57471584  0.34282819  0.22313243    -0.03500
Br1231     Br  0.52009769  0.39014626  0.23440874    -0.04400
Br1232     Br  0.61055016  0.44149458  0.16830302    -0.00400
C1233       C  0.56559908  0.21494340  0.07551812     0.01000
C1234       C  0.57591967  0.22970082  0.05627425     0.03800
C1235       C  0.59513668  0.22032886  0.04128445    -0.12200
C1236       C  0.60266967  0.19559991  0.04381583     0.23100
C1237       C  0.58990508  0.17991437  0.06022973    -0.12800
C1238       C  0.57334708  0.18990624  0.07759673     0.04500
C1239       C  0.62750813  0.18750264  0.03512996     0.27000
C1240       C  0.63210668  0.18031314  0.01048536    -0.13500
C1241       C  0.65517110  0.16954159  0.00431226     0.05100
C1242       C  0.67229606  0.16327760  0.02329867    -0.09500
C1243       C  0.66643366  0.16892478  0.04798904     0.05900
C1244       C  0.64590791  0.18370178  0.05324838    -0.13800
Br1245     Br  0.59718533  0.14486180  0.06011323    -0.05900
Br1246     Br  0.56652436  0.26381406  0.05194593    -0.00300
Br1247     Br  0.66175776  0.16068287  0.97031842     0.00200
Br1248     Br  0.64274118  0.19826899  0.08569094    -0.04200
Br1249     Br  0.56464164  0.16932372  0.10542500     0.00300
Br1250     Br  0.61258222  0.24178850  0.01862958    -0.03500
Br1251     Br  0.60661471  0.18399795  0.98564000    -0.04400
Br1252     Br  0.68303464  0.15318360  0.07524340    -0.00400
C1253       C  0.49497767  0.45112207  0.02811021     0.01000
C1254       C  0.50248050  0.43041832  0.01372357     0.03800
C1255       C  0.49885334  0.40585007  0.02207671    -0.12200
C1256       C  0.49007746  0.40102860  0.04615747     0.23100
C1257       C  0.48350966  0.42140498  0.06115552    -0.12800
C1258       C  0.48517136  0.44609134  0.05203761     0.04500
C1259       C  0.48939845  0.37473612  0.05606202     0.27000
C1260       C  0.46668276  0.36264797  0.06107036    -0.13500
C1261       C  0.46635770  0.33877992  0.07208847     0.05100
C1262       C  0.48864061  0.32535868  0.07589637    -0.09500
C1263       C  0.51131968  0.33711904  0.06985403     0.05900
C1264       C  0.51170369  0.36181252  0.06098680    -0.13800
Br1265     Br  0.47283467  0.41545031  0.09475164    -0.05900
Br1266     Br  0.52226594  0.43513215  0.98449984    -0.00300
Br1267     Br  0.43539027  0.32561630  0.08395110     0.00200
Br1268     Br  0.54305424  0.37871939  0.05772418    -0.04200
Br1269     Br  0.47440492  0.47235145  0.07325872     0.00300
Br1270     Br  0.50633356  0.37850049  0.00038285    -0.03500
Br1271     Br  0.43587632  0.37910759  0.05335273    -0.04400
Br1272     Br  0.54235743  0.32077774  0.07681904    -0.00400
C1273       C  0.58231950  0.26008533  0.16545550     0.01000
C1274       C  0.59668961  0.28198546  0.16392030     0.03800
C1275       C  0.62029278  0.28346587  0.17545900    -0.12200
C1276       C  0.63071577  0.26274305  0.18764028     0.23100
C1277       C  0.61656234  0.24075619  0.18891985    -0.12800
C1278       C  0.59267313  0.23941011  0.17795436     0.04500
C1279       C  0.65667878  0.26389390  0.19847303     0.27000
C1280       C  0.67772170  0.26335237  0.18312129    -0.13500
C1281       C  0.70211260  0.26502933  0.19314240     0.05100
C1282       C  0.70650780  0.26404282  0.21932675    -0.09500
C1283       C  0.68466376  0.26596445  0.23439091     0.05900
C1284       C  0.66037885  0.26629230  0.22406432    -0.13800
Br1285     Br  0.63014167  0.21203844  0.20525809    -0.05900
Br1286     Br  0.58455633  0.31012950  0.14556347    -0.00300
Br1287     Br  0.72782561  0.27208878  0.16975211     0.00200
Br1288     Br  0.63150405  0.26977766  0.24505741    -0.04200
Br1289     Br  0.57545870  0.20811347  0.17789814     0.00300
Br1290     Br  0.63842307  0.31415929  0.17470231    -0.03500
Br1291     Br  0.67281292  0.25961763  0.14788873    -0.04400
Br1292     Br  0.68617955  0.26804832  0.26960843    -0.00400
C1293       C  0.66991534  0.07166681  0.99266905     0.01000
C1294       C  0.66062332  0.06015714  0.01427437     0.03800
C1295       C  0.63670903  0.04946994  0.01419660    -0.12200
C1296       C  0.62294223  0.04783956  0.99193415     0.23100
C1297       C  0.63345150  0.05709726  0.96992408    -0.12800
C1298       C  0.65581708  0.07046034  0.97060026     0.04500
C1299       C  0.59642741  0.03943573  0.99194876     0.27000
C1300       C  0.59012671  0.01454724  0.99624163    -0.13500
C1301       C  0.56500787  0.00741699  0.99820805     0.05100
C1302       C  0.54547532  0.02435740  0.99280974    -0.09500
C1303       C  0.55214556  0.04958790  0.98855046     0.05900
C1304       C  0.57732446  0.05693090  0.98859561    -0.13800
Br1305     Br  0.61654784  0.05245830  0.93884283    -0.05900
Br1306     Br  0.67939403  0.06100963  0.04475654    -0.00300
Br1307     Br  0.55806140  0.97668888  0.01529653     0.00200
Br1308     Br  0.58589882  0.09163341  0.98526653    -0.04200
Br1309     Br  0.66596190  0.08820569  0.94133539     0.00300
Br1310     Br  0.62218734  0.03918178  0.04512945    -0.03500
Br1311     Br  0.61602944  0.99024914  0.00062546    -0.04400
Br1312     Br  0.52817571  0.07568626  0.98490315    -0.00400
C1313       C  0.50833515  0.04479165  0.03112391     0.01000
C1314       C  0.52897452  0.05181976  0.04612424     0.03800
C1315       C  0.52995626  0.07555673  0.05701816    -0.12200
C1316       C  0.50967726  0.09179264  0.05493540     0.23100
C1317       C  0.48889403  0.08469354  0.04100950    -0.12800
C1318       C  0.48913882  0.06243688  0.02767155     0.04500
C1319       C  0.50993832  0.11637096  0.06735532     0.27000
C1320       C  0.50598642  0.11779593  0.09297563    -0.13500
C1321       C  0.50440572  0.14094793  0.10465747     0.05100
C1322       C  0.50619725  0.16324806  0.09066847    -0.09500
C1323       C  0.51024436  0.16162763  0.06483445     0.05900
C1324       C  0.51268270  0.13831100  0.05342401    -0.13800
Br1325     Br  0.45987721  0.10563091  0.04024334    -0.05900
Br1326     Br  0.55690738  0.03067949  0.05179790    -0.00300
Br1327     Br  0.49896573  0.14093257  0.13986551     0.00200
Br1328     Br  0.52029544  0.13628642  0.01863400    -0.04200
Br1329     Br  0.46655480  0.05971648  0.00026144     0.00300
Br1330     Br  0.55917733  0.08618565  0.07495223    -0.03500
Br1331     Br  0.50249967  0.08768045  0.11210864    -0.04400
Br1332     Br  0.51330644  0.19106944  0.04474466    -0.00400
C1333       C  0.72819245  0.06532411  0.93157669     0.01000
C1334       C  0.71175252  0.04557054  0.93569706     0.03800
C1335       C  0.69958939  0.03476541  0.91542157    -0.12200
C1336       C  0.70645346  0.04173436  0.89121919     0.23100
C1337       C  0.72717087  0.05702215  0.88745857    -0.12800
C1338       C  0.73822149  0.06872783  0.90776301     0.04500
C1339       C  0.69117339  0.03462753  0.86977541     0.27000
C1340       C  0.69493933  0.01187744  0.85799330    -0.13500
C1341       C  0.68046705  0.00551069  0.83729871     0.05100
C1342       C  0.66250988  0.02245835  0.82793446    -0.09500
C1343       C  0.65903130  0.04538084  0.83997058     0.05900
C1344       C  0.67378331  0.05159668  0.86035670    -0.13800
Br1345     Br  0.73909416  0.06310661  0.85434997    -0.05900
Br1346     Br  0.70811165  0.03167472  0.96828716    -0.00300
Br1347     Br  0.68470956  0.97281102  0.82345945     0.00200
Br1348     Br  0.67136568  0.08427667  0.87429812    -0.04200
Br1349     Br  0.76801799  0.08775820  0.90309276     0.00300
Br1350     Br  0.67252385  0.01211595  0.92088327    -0.03500
Br1351     Br  0.72105440  0.99022273  0.86955464    -0.04400
Br1352     Br  0.63442689  0.06907467  0.82904744    -0.00400
C1353       C  0.67291599  0.97495244  0.68114766     0.01000
C1354       C  0.67270976  0.94983157  0.67363027     0.03800
C1355       C  0.68723959  0.94218692  0.65373671    -0.12200
C1356       C  0.69794504  0.95982259  0.63792435     0.23100
C1357       C  0.69792828  0.98495382  0.64467827    -0.12800
C1358       C  0.68644214  0.99238027  0.66693048     0.04500
C1359       C  0.70582913  0.95156328  0.61301351     0.27000
C1360       C  0.73106176  0.94788494  0.60764490    -0.13500
C1361       C  0.73799470  0.93544341  0.58586567     0.05100
C1362       C  0.71962887  0.92447293  0.57061568    -0.09500
C1363       C  0.69436298  0.92679262  0.57726099     0.05900
C1364       C  0.68756064  0.94242092  0.59675464    -0.13800
Br1365     Br  0.71212109  0.00920507  0.62263867    -0.05900
Br1366     Br  0.65089182  0.92539415  0.68791884    -0.00300
Br1367     Br  0.77283605  0.92969579  0.57973987     0.00200
Br1368     Br  0.65289499  0.94952484  0.60269690    -0.04200
Br1369     Br  0.68660510  0.02690161  0.67583895     0.00300
Br1370     Br  0.69122768  0.90729635  0.64724165    -0.03500
Br1371     Br  0.75591242  0.95738066  0.63153815    -0.04400
Br1372     Br  0.66911275  0.90559815  0.56350978    -0.00400
C1373       C  0.66845733  0.92148188  0.74894590     0.01000
C1374       C  0.66105894  0.90116607  0.76381927     0.03800
C1375       C  0.67307171  0.87809921  0.76176445    -0.12200
C1376       C  0.69369913  0.87528658  0.74611947     0.23100
C1377       C  0.70318540  0.89633615  0.73381272    -0.12800
C1378       C  0.69126446  0.91956034  0.73623115     0.04500
C1379       C  0.70574780  0.85034052  0.74389149     0.27000
C1380       C  0.72398991  0.84279166  0.76087104    -0.13500
C1381       C  0.73296809  0.81817973  0.76088541     0.05100
C1382       C  0.72399275  0.80026350  0.74374349    -0.09500
C1383       C  0.70720066  0.80912066  0.72507784     0.05900
C1384       C  0.69778489  0.83362416  0.72574732    -0.13800
Br1385     Br  0.73222727  0.89325036  0.71335783    -0.05900
Br1386     Br  0.63802606  0.90556982  0.79058682    -0.00300
Br1387     Br  0.76005801  0.81059991  0.78281453     0.00200
Br1388     Br  0.67379704  0.84503360  0.70152183    -0.04200
Br1389     Br  0.70779270  0.94901117  0.72494819     0.00300
Br1390     Br  0.66134411  0.85011086  0.78059813    -0.03500
Br1391     Br  0.73713897  0.86688103  0.78372158    -0.04400
Br1392     Br  0.69715222  0.79005042  0.69705970    -0.00400
C1393       C  0.56950218  0.98884324  0.82899613     0.01000
C1394       C  0.57533735  0.97162840  0.84817781     0.03800
C1395       C  0.56317203  0.97263134  0.87135149    -0.12200
C1396       C  0.54445433  0.99020422  0.87591343     0.23100
C1397       C  0.53716272  0.00604576  0.85641381    -0.12800
C1398       C  0.54993834  0.00599264  0.83346471     0.04500
C1399       C  0.53288399  0.99240450  0.90128837     0.27000
C1400       C  0.51322903  0.97686541  0.90870256    -0.13500
C1401       C  0.50329322  0.97849989  0.93311717     0.05100
C1402       C  0.51391568  0.99553949  0.95075124    -0.09500
C1403       C  0.52626316  0.01550561  0.93941681     0.05900
C1404       C  0.53926595  0.01205780  0.91711236    -0.13800
Br1405     Br  0.50931459  0.02792269  0.86136159    -0.05900
Br1406     Br  0.60017894  0.94618132  0.84363138    -0.00300
Br1407     Br  0.47342783  0.95967727  0.93902397     0.00200
Br1408     Br  0.56166066  0.03746006  0.90626491    -0.04200
Br1409     Br  0.54129926  0.03116056  0.80950846     0.00300
Br1410     Br  0.57262459  0.94995956  0.89719872    -0.03500
Br1411     Br  0.49913259  0.95455749  0.88460994    -0.04400
Br1412     Br  0.50685143  0.04502508  0.93863637    -0.00400
C1413       C  0.58598402  0.57458593  0.28286443     0.01000
C1414       C  0.57945879  0.59239808  0.26468505     0.03800
C1415       C  0.57109956  0.61586746  0.27200106    -0.12200
C1416       C  0.56678969  0.62064480  0.29715041     0.23100
C1417       C  0.57259713  0.60270413  0.31517614    -0.12800
C1418       C  0.58421822  0.58075061  0.30820523     0.04500
C1419       C  0.55734100  0.64489138  0.30511374     0.27000
C1420       C  0.57302728  0.66069812  0.31842237    -0.13500
C1421       C  0.56279354  0.67957801  0.33277286     0.05100
C1422       C  0.53743904  0.68619179  0.32966804    -0.09500
C1423       C  0.52231607  0.67179012  0.31371666     0.05900
C1424       C  0.53203520  0.65042908  0.30261616    -0.13800
Br1425     Br  0.56555511  0.60836844  0.34968843    -0.05900
Br1426     Br  0.58586489  0.58659879  0.23001550    -0.00300
Br1427     Br  0.58325252  0.69216824  0.35929149     0.00200
Br1428     Br  0.51038721  0.62730382  0.28597333    -0.04200
Br1429     Br  0.60069490  0.56161899  0.33365347     0.00300
Br1430     Br  0.56776265  0.64230980  0.24811383    -0.03500
Br1431     Br  0.60843969  0.65516361  0.31837451    -0.04400
Br1432     Br  0.48734825  0.67825875  0.30992011    -0.00400
C1433       C  0.56934685  0.78014782  0.43003446     0.01000
C1434       C  0.57987883  0.76165974  0.44574035     0.03800
C1435       C  0.60258846  0.76616379  0.45802431    -0.12200
C1436       C  0.61507959  0.78865627  0.45432697     0.23100
C1437       C  0.60484171  0.80690662  0.43896353    -0.12800
C1438       C  0.58199289  0.80295035  0.42738397     0.04500
C1439       C  0.63883048  0.79422284  0.46668854     0.27000
C1440       C  0.63872762  0.80939372  0.48774285    -0.13500
C1441       C  0.66043472  0.82190398  0.49457835     0.05100
C1442       C  0.68133015  0.82110754  0.47893800    -0.09500
C1443       C  0.68301919  0.80163337  0.46175680     0.05900
C1444       C  0.66143536  0.78869992  0.45492835    -0.13800
Br1445     Br  0.62319229  0.83702464  0.43243133    -0.05900
Br1446     Br  0.56530217  0.72913973  0.44904950    -0.00300
Br1447     Br  0.66209948  0.83775626  0.52644043     0.00200
Br1448     Br  0.66242357  0.76465493  0.42870604    -0.04200
Br1449     Br  0.56969797  0.82886649  0.40660224     0.00300
Br1450     Br  0.61752416  0.74127061  0.47897062    -0.03500
Br1451     Br  0.60830996  0.81486455  0.50562074    -0.04400
Br1452     Br  0.71475026  0.79033129  0.45037899    -0.00400
C1453       C  0.49752482  0.67094486  0.41942042     0.01000
C1454       C  0.50737578  0.64945289  0.40805803     0.03800
C1455       C  0.50599535  0.62626919  0.41967743    -0.12200
C1456       C  0.49408664  0.62380097  0.44252914     0.23100
C1457       C  0.48527282  0.64505778  0.45478512    -0.12800
C1458       C  0.48714909  0.66862923  0.44339576     0.04500
C1459       C  0.49254012  0.59873236  0.45387620     0.27000
C1460       C  0.47433830  0.58179551  0.44607824    -0.13500
C1461       C  0.47495484  0.55693090  0.45434443     0.05100
C1462       C  0.49336311  0.54889137  0.47150485    -0.09500
C1463       C  0.51116154  0.56664638  0.47949219     0.05900
C1464       C  0.51125970  0.59090614  0.47005346    -0.13800
Br1465     Br  0.47116951  0.64170345  0.48736672    -0.05900
Br1466     Br  0.52410993  0.65085737  0.37697699    -0.00300
Br1467     Br  0.45035811  0.53493732  0.44131941     0.00200
Br1468     Br  0.53740767  0.61376165  0.47898974    -0.04200
Br1469     Br  0.47422340  0.69720841  0.46024227     0.00300
Br1470     Br  0.52151658  0.59758427  0.40488169    -0.03500
Br1471     Br  0.44895921  0.59291913  0.42328391    -0.04400
Br1472     Br  0.53293051  0.56029840  0.50677663    -0.00400
C1473       C  0.58517264  0.74892010  0.33747927     0.01000
C1474       C  0.60774860  0.75588867  0.34907549     0.03800
C1475       C  0.63066867  0.75330206  0.33678091    -0.12200
C1476       C  0.63175989  0.74326395  0.31282415     0.23100
C1477       C  0.60947063  0.73590009  0.30122681    -0.12800
C1478       C  0.58627134  0.73993111  0.31285543     0.04500
C1479       C  0.65625799  0.74198855  0.29953221     0.27000
C1480       C  0.66231129  0.75971733  0.28144836    -0.13500
C1481       C  0.68580127  0.75947914  0.26979109     0.05100
C1482       C  0.70470207  0.74250008  0.27704455    -0.09500
C1483       C  0.69807555  0.72441289  0.29523846     0.05900
C1484       C  0.67406499  0.72408542  0.30599626    -0.13800
Br1485     Br  0.61095347  0.71915042  0.26982644    -0.05900
Br1486     Br  0.60781280  0.77134179  0.38099761    -0.00300
Br1487     Br  0.69035917  0.78107099  0.24187496     0.00200
Br1488     Br  0.66528344  0.69929451  0.33040332    -0.04200
Br1489     Br  0.55633410  0.73378971  0.29429736     0.00300
Br1490     Br  0.66095336  0.76353478  0.35284840    -0.03500
Br1491     Br  0.63827051  0.78496605  0.27316632    -0.04400
Br1492     Br  0.72052912  0.69952779  0.30666901    -0.00400
C1493       C  0.66998589  0.92066845  0.50476561     0.01000
C1494       C  0.64663935  0.91024803  0.49943594     0.03800
C1495       C  0.62470152  0.92319049  0.50438761    -0.12200
C1496       C  0.62536680  0.94864216  0.51010232     0.23100
C1497       C  0.64871427  0.95988575  0.51413156    -0.12800
C1498       C  0.67091804  0.94588670  0.51196681     0.04500
C1499       C  0.60159900  0.96331113  0.51005028     0.27000
C1500       C  0.59514747  0.97847096  0.48966911    -0.13500
C1501       C  0.57093061  0.98867700  0.48768069     0.05100
C1502       C  0.55180920  0.98115892  0.50419569    -0.09500
C1503       C  0.55853646  0.96499329  0.52383753     0.05900
C1504       C  0.58359507  0.95882740  0.52825647    -0.13800
Br1505     Br  0.65004433  0.99406044  0.52408420    -0.05900
Br1506     Br  0.64410743  0.88008186  0.48095774    -0.00300
Br1507     Br  0.56368545  0.01093114  0.46070782     0.00200
Br1508     Br  0.59338195  0.94317120  0.55885251    -0.04200
Br1509     Br  0.70229189  0.96154019  0.51893179     0.00300
Br1510     Br  0.59424794  0.90457190  0.50513201    -0.03500
Br1511     Br  0.61829215  0.98235712  0.46271796    -0.04400
Br1512     Br  0.53407798  0.94581741  0.54079285    -0.00400
C1513       C  0.45484837  0.03010082  0.48808455     0.01000
C1514       C  0.44844591  0.04953779  0.47135421     0.03800
C1515       C  0.42336570  0.05540460  0.46643485    -0.12200
C1516       C  0.40457518  0.04766373  0.48274903     0.23100
C1517       C  0.41077689  0.02988968  0.50090041    -0.12800
C1518       C  0.43491919  0.01949392  0.50170015     0.04500
C1519       C  0.37954616  0.06033787  0.48241439     0.27000
C1520       C  0.37797018  0.08591341  0.48737780    -0.13500
C1521       C  0.35494380  0.09838188  0.48656551     0.05100
C1522       C  0.33234457  0.08509390  0.48316196    -0.09500
C1523       C  0.33404357  0.05944279  0.47816068     0.05900
C1524       C  0.35742492  0.04741999  0.47688858    -0.13800
Br1525     Br  0.38662331  0.02039098  0.52548210    -0.05900
Br1526     Br  0.47192272  0.07292255  0.45903153    -0.00300
Br1527     Br  0.35573625  0.13394918  0.49009128     0.00200
Br1528     Br  0.35918538  0.01336875  0.46652782    -0.04200
Br1529     Br  0.43961681  0.99018020  0.52115543     0.00300
Br1530     Br  0.41474106  0.07474361  0.43748259    -0.03500
Br1531     Br  0.40759980  0.10419039  0.49596217    -0.04400
Br1532     Br  0.30457667  0.04068251  0.47159151    -0.00400
C1533       C  0.52827867  0.01174215  0.54373179     0.01000
C1534       C  0.55226417  0.02158391  0.54827701     0.03800
C1535       C  0.56328018  0.01948840  0.57202447    -0.12200
C1536       C  0.54898454  0.01226231  0.59269206     0.23100
C1537       C  0.52430504  0.00471719  0.58863119    -0.12800
C1538       C  0.51527126  0.00169954  0.56429178     0.04500
C1539       C  0.56013366  0.01147013  0.61832796     0.27000
C1540       C  0.56417772  0.98862127  0.63049680    -0.13500
C1541       C  0.57458300  0.98777662  0.65458910     0.05100
C1542       C  0.58191628  0.00976838  0.66674182    -0.09500
C1543       C  0.57907559  0.03244478  0.65386637     0.05900
C1544       C  0.56760896  0.03341221  0.63029215    -0.13800
Br1545     Br  0.50266379  0.99845968  0.61638972    -0.05900
Br1546     Br  0.57051932  0.03825751  0.52277505    -0.00300
Br1547     Br  0.58120051  0.95602852  0.66967130     0.00200
Br1548     Br  0.56261060  0.06497543  0.61407596    -0.04200
Br1549     Br  0.48748902  0.97974188  0.55975904     0.00300
Br1550     Br  0.59848268  0.02474515  0.57591525    -0.03500
Br1551     Br  0.55698379  0.95819383  0.61340405    -0.04400
Br1552     Br  0.59187399  0.06236998  0.66759559    -0.00400
C1553       C  0.50139750  0.83779443  0.41606265     0.01000
C1554       C  0.51620435  0.85725822  0.40596310     0.03800
C1555       C  0.52014562  0.87907797  0.41934854    -0.12200
C1556       C  0.50395558  0.88565266  0.43863025     0.23100
C1557       C  0.48593362  0.86833680  0.44629095    -0.12800
C1558       C  0.48558520  0.84402766  0.43622819     0.04500
C1559       C  0.50518135  0.91146642  0.44887725     0.27000
C1560       C  0.51690214  0.91601946  0.47181754    -0.13500
C1561       C  0.52739374  0.93949605  0.47592779     0.05100
C1562       C  0.51611030  0.96034573  0.46496071    -0.09500
C1563       C  0.50859731  0.95597533  0.44021407     0.05900
C1564       C  0.50112843  0.93191683  0.43293215    -0.13800
Br1565     Br  0.46081246  0.87863318  0.46937882    -0.05900
Br1566     Br  0.52758510  0.85810801  0.37178063    -0.00300
Br1567     Br  0.56090299  0.93648774  0.46443962     0.00200
Br1568     Br  0.48718104  0.92665208  0.40048459    -0.04200
Br1569     Br  0.46099912  0.82103671  0.44811309     0.00300
Br1570     Br  0.54780007  0.90013838  0.41050678    -0.03500
Br1571     Br  0.52773351  0.88901861  0.49242172    -0.04400
Br1572     Br  0.52266885  0.97628311  0.41484484    -0.00400
C1573       C  0.41824828  0.92135532  0.26583766     0.01000
C1574       C  0.40745694  0.89815463  0.27235339     0.03800
C1575       C  0.42246356  0.87753640  0.27718519    -0.12200
C1576       C  0.44829399  0.87979181  0.27703347     0.23100
C1577       C  0.45931312  0.90150192  0.26802603    -0.12800
C1578       C  0.44441189  0.92208996  0.26170620     0.04500
C1579       C  0.46242458  0.86200895  0.29241843     0.27000
C1580       C  0.46134879  0.86532219  0.31814766    -0.13500
C1581       C  0.46700492  0.84572304  0.33419316     0.05100
C1582       C  0.47539090  0.82267654  0.32458413    -0.09500
C1583       C  0.47811816  0.82008719  0.29854773     0.05900
C1584       C  0.47127123  0.83965142  0.28257855    -0.13800
Br1585     Br  0.49495230  0.90289678  0.26537711    -0.05900
Br1586     Br  0.37229177  0.89289560  0.27517296    -0.00300
Br1587     Br  0.46122087  0.85145845  0.36907375     0.00200
Br1588     Br  0.47223297  0.83546434  0.24715479    -0.04200
Br1589     Br  0.46086116  0.95061480  0.24770154     0.00300
Br1590     Br  0.40793049  0.84614051  0.28639893    -0.03500
Br1591     Br  0.44955564  0.89653200  0.33132544    -0.04400
Br1592     Br  0.48897264  0.78929171  0.28399885    -0.00400
C1593       C  0.42419901  0.07132409  0.23759107     0.01000
C1594       C  0.44669807  0.06755121  0.22473385     0.03800
C1595       C  0.46043451  0.08810970  0.21607712    -0.12200
C1596       C  0.45281767  0.11231931  0.22205214     0.23100
C1597       C  0.43280422  0.11580199  0.23821147    -0.12800
C1598       C  0.41795625  0.09563529  0.24506541     0.04500
C1599       C  0.46161086  0.13406224  0.20763693     0.27000
C1600       C  0.48329379  0.14702057  0.21414050    -0.13500
C1601       C  0.48987501  0.16897854  0.20136938     0.05100
C1602       C  0.47460102  0.17811362  0.18186239    -0.09500
C1603       C  0.45210443  0.16525064  0.17638830     0.05900
C1604       C  0.44597248  0.14345549  0.18902456    -0.13800
Br1605     Br  0.42414592  0.14897311  0.24849478    -0.05900
Br1606     Br  0.45812891  0.03455798  0.21776364    -0.00300
Br1607     Br  0.51992606  0.18570380  0.21098608     0.00200
Br1608     Br  0.41505459  0.12683507  0.18147056    -0.04200
Br1609     Br  0.38882731  0.10248078  0.26411003     0.00300
Br1610     Br  0.48850582  0.08332712  0.19458931    -0.03500
Br1611     Br  0.50356428  0.13463963  0.24094947    -0.04400
Br1612     Br  0.42782193  0.17750779  0.15269986    -0.00400
C1613       C  0.32084188  0.01725920  0.32645743     0.01000
C1614       C  0.29461382  0.01395753  0.32494579     0.03800
C1615       C  0.27907836  0.02238552  0.34423168    -0.12200
C1616       C  0.28938204  0.03254634  0.36582037     0.23100
C1617       C  0.31520368  0.03302684  0.36884754    -0.12800
C1618       C  0.33091663  0.02684948  0.34907210     0.04500
C1619       C  0.27415038  0.04699666  0.38355980     0.27000
C1620       C  0.27149906  0.07243521  0.37942187    -0.13500
C1621       C  0.26677642  0.08837491  0.39931652     0.05100
C1622       C  0.26250860  0.07874176  0.42339701    -0.09500
C1623       C  0.25891206  0.05268003  0.42564479     0.05900
C1624       C  0.26626584  0.03689815  0.40619018    -0.13800
Br1625     Br  0.32895934  0.04316288  0.40042781    -0.05900
Br1626     Br  0.27886319  0.99894603  0.29655776    -0.00300
Br1627     Br  0.26416404  0.12298606  0.39200182     0.00200
Br1628     Br  0.26559147  0.00150332  0.41015454    -0.04200
Br1629     Br  0.36586646  0.03427059  0.35400516     0.00300
Br1630     Br  0.24345361  0.02090461  0.34108287    -0.03500
Br1631     Br  0.27352754  0.08506821  0.34606485    -0.04400
Br1632     Br  0.24238685  0.03793525  0.45382006    -0.00400
C1633       C  0.47437344  0.00682741  0.05167659     0.01000
C1634       C  0.48832017  0.00202717  0.07361626     0.03800
C1635       C  0.47769393  0.00469195  0.09745683    -0.12200
C1636       C  0.45208457  0.00887371  0.10014460     0.23100
C1637       C  0.43761505  0.01204511  0.07867380    -0.12800
C1638       C  0.44872515  0.01268791  0.05489448     0.04500
C1639       C  0.44007459  0.00932057  0.12536188     0.27000
C1640       C  0.43410967  0.98710147  0.13786287    -0.13500
C1641       C  0.42216451  0.98759300  0.16116082     0.05100
C1642       C  0.41490673  0.01035137  0.17186064    -0.09500
C1643       C  0.41955605  0.03240373  0.15863482     0.05900
C1644       C  0.43297291  0.03197941  0.13616538    -0.13800
Br1645     Br  0.40195409  0.01387931  0.08205271    -0.05900
Br1646     Br  0.52021843  0.98637492  0.07164148    -0.00300
Br1647     Br  0.41367869  0.95666432  0.17710651     0.00200
Br1648     Br  0.44163331  0.06257365  0.12007958    -0.04200
Br1649     Br  0.42746130  0.02175747  0.02793945     0.00300
Br1650     Br  0.49804043  0.00161373  0.12673339    -0.03500
Br1651     Br  0.44096273  0.95577276  0.12249442    -0.04400
Br1652     Br  0.40665550  0.06319024  0.17072257    -0.00400
C1653       C  0.47395305  0.99565622  0.45089386     0.01000
C1654       C  0.45709809  0.97576561  0.44810484     0.03800
C1655       C  0.44490358  0.97181042  0.42522921    -0.12200
C1656       C  0.44772906  0.98887623  0.40545899     0.23100
C1657       C  0.46309841  0.00969507  0.40898176    -0.12800
C1658       C  0.47755087  0.01192799  0.43061343     0.04500
C1659       C  0.43523437  0.98476667  0.38086227     0.27000
C1660       C  0.44926302  0.98130439  0.35899062    -0.13500
C1661       C  0.43742943  0.98042527  0.33563834     0.05100
C1662       C  0.41125958  0.98001643  0.33388948    -0.09500
C1663       C  0.39745223  0.97925041  0.35634920     0.05900
C1664       C  0.40917220  0.98448125  0.37909009    -0.13800
Br1665     Br  0.46429224  0.03556647  0.38425385    -0.05900
Br1666     Br  0.45312007  0.95184973  0.47429733    -0.00300
Br1667     Br  0.45762192  0.97861342  0.30633108     0.00200
Br1668     Br  0.38922158  0.99365902  0.40728843    -0.04200
Br1669     Br  0.50590438  0.03375534  0.42973137     0.00300
Br1670     Br  0.42530023  0.94217603  0.42081421    -0.03500
Br1671     Br  0.48484947  0.97812376  0.36052584    -0.04400
Br1672     Br  0.36282032  0.96982776  0.35744537    -0.00400
C1673       C  0.57232034  0.27461319  0.57623817     0.01000
C1674       C  0.57914756  0.25961639  0.55575703     0.03800
C1675       C  0.60097670  0.26479693  0.54263410    -0.12200
C1676       C  0.61553897  0.28513517  0.54934734     0.23100
C1677       C  0.60821219  0.30086282  0.56856267    -0.12800
C1678       C  0.58668060  0.29589800  0.58193799     0.04500
C1679       C  0.63749718  0.29175447  0.53492143     0.27000
C1680       C  0.66107298  0.28307300  0.54202151    -0.13500
C1681       C  0.68227370  0.29513202  0.53302547     0.05100
C1682       C  0.67939766  0.31598342  0.51769622    -0.09500
C1683       C  0.65633391  0.32035207  0.50620444     0.05900
C1684       C  0.63508087  0.30930187  0.51588878    -0.13800
Br1685     Br  0.62765915  0.32968156  0.57648617    -0.05900
Br1686     Br  0.55924005  0.23211620  0.54453449    -0.00300
Br1687     Br  0.71475732  0.28247601  0.54049918     0.00200
Br1688     Br  0.60270682  0.32020810  0.50512446    -0.04200
Br1689     Br  0.57728386  0.31941304  0.60729931     0.00300
Br1690     Br  0.61128069  0.24420192  0.51536812    -0.03500
Br1691     Br  0.66410187  0.25605787  0.56515691    -0.04400
Br1692     Br  0.65372858  0.33940341  0.47614224    -0.00400
C1693       C  0.57302626  0.07413206  0.72623642     0.01000
C1694       C  0.54670637  0.07269510  0.72789007     0.03800
C1695       C  0.53195576  0.09357844  0.72247954    -0.12200
C1696       C  0.54312563  0.11610354  0.71578200     0.23100
C1697       C  0.56902785  0.11816113  0.71535021    -0.12800
C1698       C  0.58396875  0.09717663  0.71900037     0.04500
C1699       C  0.52871791  0.13526544  0.70242199     0.27000
C1700       C  0.52520555  0.13222947  0.67691367    -0.13500
C1701       C  0.51749336  0.15222680  0.66237771     0.05100
C1702       C  0.51402121  0.17585610  0.67294337    -0.09500
C1703       C  0.51261119  0.17733574  0.69918407     0.05900
C1704       C  0.52110395  0.15733351  0.71383620    -0.13800
Br1705     Br  0.58387780  0.15002702  0.70806976    -0.05900
Br1706     Br  0.52986008  0.04175837  0.73439010    -0.00300
Br1707     Br  0.50782558  0.14527372  0.62907149     0.00200
Br1708     Br  0.52298815  0.16009110  0.74932377    -0.04200
Br1709     Br  0.61887063  0.10099929  0.71086372     0.00300
Br1710     Br  0.49620240  0.09118324  0.72222579    -0.03500
Br1711     Br  0.53171922  0.10060128  0.66165606    -0.04400
Br1712     Br  0.49668595  0.20479978  0.71545845    -0.00400
C1713       C  0.42649717  0.23706401  0.57283495     0.01000
C1714       C  0.42955798  0.22325126  0.55097432     0.03800
C1715       C  0.40859208  0.21303676  0.53923819    -0.12200
C1716       C  0.38472342  0.21791880  0.54862720     0.23100
C1717       C  0.38159922  0.23472501  0.56806608    -0.12800
C1718       C  0.40243722  0.24459887  0.57988847     0.04500
C1719       C  0.36310596  0.20355931  0.54011170     0.27000
C1720       C  0.34860576  0.21187879  0.52021334    -0.13500
C1721       C  0.32764844  0.19824841  0.51266607     0.05100
C1722       C  0.32159487  0.17552195  0.52469873    -0.09500
C1723       C  0.33589923  0.16816313  0.54568969     0.05900
C1724       C  0.35622448  0.18234314  0.55336709    -0.13800
Br1725     Br  0.34866651  0.24253722  0.57982378    -0.05900
Br1726     Br  0.46215557  0.21775485  0.53750640    -0.00300
Br1727     Br  0.30823677  0.21159061  0.48571208     0.00200
Br1728     Br  0.37456656  0.17301857  0.58272792    -0.04200
Br1729     Br  0.39738270  0.26953846  0.60456153     0.00300
Br1730     Br  0.41248397  0.19073546  0.51175569    -0.03500
Br1731     Br  0.35774240  0.24227151  0.50363469    -0.04400
Br1732     Br  0.32872181  0.13887741  0.56504251    -0.00400
C1733       C  0.48293293  0.32240773  0.67799516     0.01000
C1734       C  0.46639404  0.31924729  0.69791126     0.03800
C1735       C  0.45711430  0.34017058  0.71017739    -0.12200
C1736       C  0.46611155  0.36376927  0.70375761     0.23100
C1737       C  0.48658288  0.36608541  0.68794870    -0.12800
C1738       C  0.49508093  0.34535079  0.67505336     0.04500
C1739       C  0.45251135  0.38621977  0.71092041     0.27000
C1740       C  0.43529196  0.39634806  0.69418395    -0.13500
C1741       C  0.42197649  0.41765255  0.70041590     0.05100
C1742       C  0.42660163  0.42968672  0.72326863    -0.09500
C1743       C  0.44578068  0.42057582  0.73898224     0.05900
C1744       C  0.45805301  0.39843933  0.73308925    -0.13800
Br1745     Br  0.50206956  0.39796311  0.68334436    -0.05900
Br1746     Br  0.45757266  0.28668390  0.70927134    -0.00300
Br1747     Br  0.39826240  0.43011154  0.67655353     0.00200
Br1748     Br  0.48259415  0.38460658  0.75524291    -0.04200
Br1749     Br  0.52446231  0.34835767  0.65514980     0.00300
Br1750     Br  0.43160427  0.33672832  0.73490750    -0.03500
Br1751     Br  0.43036757  0.38121128  0.66219460    -0.04400
Br1752     Br  0.45604216  0.43756950  0.76873051    -0.00400
C1753       C  0.51153728  0.33334144  0.58067310     0.01000
C1754       C  0.52391608  0.33484313  0.55753148     0.03800
C1755       C  0.52587816  0.35771630  0.54466325    -0.12200
C1756       C  0.51329911  0.37888269  0.55336354     0.23100
C1757       C  0.49819371  0.37648971  0.57446231    -0.12800
C1758       C  0.49732820  0.35413092  0.58795394     0.04500
C1759       C  0.51444468  0.40356038  0.54032869     0.27000
C1760       C  0.52490833  0.42399802  0.55263298    -0.13500
C1761       C  0.51967755  0.44843369  0.54477458     0.05100
C1762       C  0.50743606  0.45302088  0.52189175    -0.09500
C1763       C  0.49888715  0.43204270  0.50844824     0.05900
C1764       C  0.50113349  0.40781303  0.51825625    -0.13800
Br1765     Br  0.47729815  0.40380441  0.58411898    -0.05900
Br1766     Br  0.53507968  0.30534993  0.54129627    -0.00300
Br1767     Br  0.52630164  0.47422675  0.56803566     0.00200
Br1768     Br  0.48398396  0.38066622  0.50251889    -0.04200
Br1769     Br  0.47287317  0.35150131  0.61353688     0.00300
Br1770     Br  0.54537476  0.35983766  0.51483767    -0.03500
Br1771     Br  0.54549572  0.41823833  0.58141051    -0.04400
Br1772     Br  0.48082751  0.43600270  0.47796531    -0.00400
C1773       C  0.49104973  0.17294850  0.57829207     0.01000
C1774       C  0.51398696  0.16198484  0.57148095     0.03800
C1775       C  0.51455050  0.13822604  0.56049162    -0.12200
C1776       C  0.49227101  0.12603634  0.55406171     0.23100
C1777       C  0.46947935  0.13754370  0.55995687    -0.12800
C1778       C  0.46901231  0.15990939  0.57333974     0.04500
C1779       C  0.49285711  0.10042404  0.54305695     0.27000
C1780       C  0.50306275  0.09608454  0.51946467    -0.13500
C1781       C  0.50635087  0.07159657  0.51083559     0.05100
C1782       C  0.49452392  0.05133638  0.52279000    -0.09500
C1783       C  0.48215848  0.05643770  0.54545473     0.05900
C1784       C  0.48384611  0.08001789  0.55656920    -0.13800
Br1785     Br  0.43860453  0.12266886  0.55009969    -0.05900
Br1786     Br  0.54494730  0.17717066  0.58109976    -0.00300
Br1787     Br  0.52849156  0.06629591  0.48340432     0.00200
Br1788     Br  0.47479766  0.08409611  0.59095284    -0.04200
Br1789     Br  0.43826152  0.17166702  0.58670307     0.00300
Br1790     Br  0.54583269  0.12117542  0.55659138    -0.03500
Br1791     Br  0.51173975  0.12376795  0.49857667    -0.04400
Br1792     Br  0.46036427  0.03343938  0.56105285    -0.00400
C1793       C  0.25812726  0.22161208  0.70293341     0.01000
C1794       C  0.27907541  0.20722782  0.69563052     0.03800
C1795       C  0.28193543  0.19928666  0.67086230    -0.12200
C1796       C  0.26232686  0.20143717  0.65379764     0.23100
C1797       C  0.24084757  0.21432687  0.66101208    -0.12800
C1798       C  0.23965660  0.22585606  0.68449489     0.04500
C1799       C  0.26429329  0.18944585  0.62872715     0.27000
C1800       C  0.26655212  0.20368151  0.60685538    -0.13500
C1801       C  0.26693148  0.19209013  0.58334761     0.05100
C1802       C  0.26743502  0.16590963  0.58148415    -0.09500
C1803       C  0.26962440  0.15201124  0.60386453     0.05900
C1804       C  0.26571398  0.16347508  0.62694702    -0.13800
Br1805     Br  0.21317990  0.21683343  0.63836650    -0.05900
Br1806     Br  0.30392271  0.19617341  0.71836131    -0.00300
Br1807     Br  0.26881588  0.21248840  0.55400074     0.00200
Br1808     Br  0.26160594  0.14324890  0.65628157    -0.04200
Br1809     Br  0.21538181  0.25147462  0.68865787     0.00300
Br1810     Br  0.31336822  0.18616513  0.65963970    -0.03500
Br1811     Br  0.27027890  0.23907370  0.60921928    -0.04400
Br1812     Br  0.27943195  0.11751436  0.60440411    -0.00400
C1813       C  0.22387608  0.20357670  0.74391833     0.01000
C1814       C  0.23830802  0.18293884  0.75182907     0.03800
C1815       C  0.22866727  0.15867614  0.75142837    -0.12200
C1816       C  0.20351016  0.15466158  0.74621504     0.23100
C1817       C  0.18825299  0.17497962  0.74060298    -0.12800
C1818       C  0.19842074  0.19896343  0.73805606     0.04500
C1819       C  0.19292713  0.12909801  0.74602298     0.27000
C1820       C  0.18615907  0.11829605  0.72334844    -0.13500
C1821       C  0.17282409  0.09590752  0.72298661     0.05100
C1822       C  0.16924056  0.08208854  0.74495130    -0.09500
C1823       C  0.17619904  0.09293748  0.76773147     0.05900
C1824       C  0.18736190  0.11659655  0.76828696    -0.13800
Br1825     Br  0.15291223  0.16953325  0.73703945    -0.05900
Br1826     Br  0.26957819  0.18757400  0.76817373    -0.00300
Br1827     Br  0.15673260  0.08660377  0.69285417     0.00200
Br1828     Br  0.19350968  0.13269446  0.79952410    -0.04200
Br1829     Br  0.17617125  0.22387515  0.72603552     0.00300
Br1830     Br  0.24975927  0.13070769  0.75875677    -0.03500
Br1831     Br  0.19461945  0.13481254  0.69272209    -0.04400
Br1832     Br  0.16725829  0.07716806  0.79843807    -0.00400
C1833       C  0.33611863  0.41929277  0.75799684     0.01000
C1834       C  0.32977724  0.40886762  0.73483847     0.03800
C1835       C  0.32188070  0.38395559  0.73326312    -0.12200
C1836       C  0.31524687  0.37060564  0.75484120     0.23100
C1837       C  0.32027928  0.38172939  0.77814191    -0.12800
C1838       C  0.33276038  0.40476167  0.77945212     0.04500
C1839       C  0.30345819  0.34513790  0.75305261     0.27000
C1840       C  0.28141506  0.34101128  0.73936898    -0.13500
C1841       C  0.27134440  0.31682315  0.73738768     0.05100
C1842       C  0.27911465  0.29761492  0.75375276    -0.09500
C1843       C  0.29985590  0.30286590  0.76912105     0.05900
C1844       C  0.31378964  0.32472993  0.76568336    -0.13800
Br1845     Br  0.30991824  0.36604949  0.80857703    -0.05900
Br1846     Br  0.33280083  0.42806099  0.70485881    -0.00300
Br1847     Br  0.24514820  0.31138535  0.71371235     0.00200
Br1848     Br  0.34781267  0.32577662  0.77683935    -0.04200
Br1849     Br  0.34660489  0.41576657  0.81044930     0.00300
Br1850     Br  0.32317909  0.36737353  0.70169353    -0.03500
Br1851     Br  0.26367191  0.36852334  0.72473592    -0.04400
Br1852     Br  0.30753044  0.28393116  0.79808307    -0.00400
C1853       C  0.41876535  0.26306931  0.66689992     0.01000
C1854       C  0.40582644  0.28538330  0.67132981     0.03800
C1855       C  0.38365880  0.28526648  0.68524033    -0.12200
C1856       C  0.37263718  0.26270478  0.69240934     0.23100
C1857       C  0.38504429  0.24035308  0.68722266    -0.12800
C1858       C  0.40811489  0.24053176  0.67495823     0.04500
C1859       C  0.34695761  0.26222815  0.70299769     0.27000
C1860       C  0.34293975  0.25570468  0.72788054    -0.13500
C1861       C  0.31866584  0.25170120  0.73663087     0.05100
C1862       C  0.29765492  0.25764238  0.72185759    -0.09500
C1863       C  0.30190959  0.26526093  0.69700265     0.05900
C1864       C  0.32631642  0.26640698  0.68748279    -0.13800
Br1865     Br  0.36997386  0.20922578  0.69610645    -0.05900
Br1866     Br  0.41760277  0.31608437  0.65762135    -0.00300
Br1867     Br  0.31487825  0.23343023  0.76706776     0.00200
Br1868     Br  0.33169785  0.27278370  0.65265556    -0.04200
Br1869     Br  0.42367185  0.20940302  0.66690018     0.00300
Br1870     Br  0.36842188  0.31599165  0.69495859    -0.03500
Br1871     Br  0.37078772  0.25183710  0.75005472    -0.04400
Br1872     Br  0.27530802  0.27369043  0.67492605    -0.00400
C1873       C  0.27391325  0.42863055  0.92661811     0.01000
C1874       C  0.27364238  0.45479596  0.92820747     0.03800
C1875       C  0.27920085  0.46935036  0.90717378    -0.12200
C1876       C  0.28666013  0.45796022  0.88496715     0.23100
C1877       C  0.28606014  0.43208833  0.88301310    -0.12800
C1878       C  0.27965703  0.41750012  0.90343989     0.04500
C1879       C  0.29988933  0.47194480  0.86533242     0.27000
C1880       C  0.29022658  0.47299425  0.84106765    -0.13500
C1881       C  0.30624643  0.47700172  0.82085997     0.05100
C1882       C  0.33164756  0.48198137  0.82498004    -0.09500
C1883       C  0.34031364  0.48423255  0.84961540     0.05900
C1884       C  0.32474546  0.47860965  0.86960460    -0.13800
Br1885     Br  0.29568933  0.41609666  0.85245019    -0.05900
Br1886     Br  0.26902637  0.47108765  0.95960853    -0.00300
Br1887     Br  0.29372544  0.47304504  0.78764828     0.00200
Br1888     Br  0.33819323  0.47854864  0.90286914    -0.04200
Br1889     Br  0.28057562  0.38217982  0.89833569     0.00300
Br1890     Br  0.27798392  0.50497242  0.90891242    -0.03500
Br1891     Br  0.25549365  0.46637508  0.83555755    -0.04400
Br1892     Br  0.37301844  0.49595119  0.85700470    -0.00400
C1893       C  0.22394064  0.42247899  0.07249269     0.01000
C1894       C  0.19841451  0.42283135  0.07864598     0.03800
C1895       C  0.19029814  0.43699069  0.09851395    -0.12200
C1896       C  0.20739953  0.44411958  0.11670938     0.23100
C1897       C  0.23295339  0.44171547  0.11228122    -0.12800
C1898       C  0.24113930  0.43341372  0.08903325     0.04500
C1899       C  0.19789923  0.45198858  0.14096878     0.27000
C1900       C  0.19874183  0.47700195  0.14764959    -0.13500
C1901       C  0.18648792  0.48501288  0.16909230     0.05100
C1902       C  0.17079619  0.46850052  0.18226248    -0.09500
C1903       C  0.16902791  0.44354504  0.17431170     0.05900
C1904       C  0.18436919  0.43498344  0.15530871    -0.13800
Br1905     Br  0.25634849  0.44731449  0.13874814    -0.05900
Br1906     Br  0.17444186  0.40059975  0.06456941    -0.00300
Br1907     Br  0.18846139  0.51962257  0.17730069     0.00200
Br1908     Br  0.18516407  0.40008353  0.14730240    -0.04200
Br1909     Br  0.27598416  0.43507573  0.08151835     0.00300
Br1910     Br  0.15553449  0.44514894  0.10153592    -0.03500
Br1911     Br  0.21406162  0.50067033  0.12556281    -0.04400
Br1912     Br  0.14340745  0.42132746  0.18572617    -0.00400
C1913       C  0.32381054  0.32575772  0.01919279     0.01000
C1914       C  0.34876817  0.33317755  0.01585141     0.03800
C1915       C  0.36833242  0.31789636  0.02376341    -0.12200
C1916       C  0.36331400  0.29410316  0.03310288     0.23100
C1917       C  0.33886325  0.28487335  0.03173451    -0.12800
C1918       C  0.31901979  0.30084805  0.02564526     0.04500
C1919       C  0.38281760  0.28064738  0.04745242     0.27000
C1920       C  0.40455232  0.27153311  0.03615974    -0.13500
C1921       C  0.42538118  0.26522132  0.05094507     0.05100
C1922       C  0.42308138  0.26432377  0.07709672    -0.09500
C1923       C  0.39923790  0.26741872  0.08722368     0.05900
C1924       C  0.38033895  0.27839134  0.07326416    -0.13800
Br1925     Br  0.33288446  0.25029625  0.03806218    -0.05900
Br1926     Br  0.35700958  0.36249489  0.99750743    -0.00300
Br1927     Br  0.45661720  0.25862504  0.03505786     0.00200
Br1928     Br  0.35193762  0.29149965  0.09032369    -0.04200
Br1929     Br  0.28546341  0.28855566  0.02687803     0.00300
Br1930     Br  0.40200893  0.32995704  0.02193768    -0.03500
Br1931     Br  0.40528590  0.26733162  0.00074044    -0.04400
Br1932     Br  0.39003949  0.25064555  0.11710337    -0.00400
C1933       C  0.04474393  0.47384322  0.00875521     0.01000
C1934       C  0.05077292  0.45189972  0.02196554     0.03800
C1935       C  0.07585146  0.44454038  0.02526208    -0.12200
C1936       C  0.09508488  0.45559038  0.01124741     0.23100
C1937       C  0.08893449  0.47625374  0.99644625    -0.12800
C1938       C  0.06472313  0.48660759  0.99714967     0.04500
C1939       C  0.12061103  0.44363939  0.00990395     0.27000
C1940       C  0.14259498  0.45602097  0.01738939    -0.13500
C1941       C  0.16622702  0.44436385  0.01517612     0.05100
C1942       C  0.16807367  0.41910571  0.00828550    -0.09500
C1943       C  0.14553282  0.40622034  0.00362514     0.05900
C1944       C  0.12284682  0.41904838  0.00158290    -0.13800
Br1945     Br  0.11248286  0.48809793  0.97222981    -0.05900
Br1946     Br  0.02553653  0.42926162  0.03251098    -0.00300
Br1947     Br  0.19570050  0.46236360  0.02436601     0.00200
Br1948     Br  0.09498979  0.40283304  0.98608061    -0.04200
Br1949     Br  0.05853672  0.51604439  0.97800696     0.00300
Br1950     Br  0.08379769  0.41873299  0.04882517    -0.03500
Br1951     Br  0.14034922  0.48858626  0.03168616    -0.04400
Br1952     Br  0.14379740  0.37056198  0.00321276    -0.00400
C1953       C  0.33317660  0.42024312  0.99549692     0.01000
C1954       C  0.34540011  0.42283534  0.01858775     0.03800
C1955       C  0.36996924  0.43184702  0.01968802    -0.12200
C1956       C  0.38200488  0.43989865  0.99791255     0.23100
C1957       C  0.36940775  0.43823020  0.97505792    -0.12800
C1958       C  0.34591795  0.42697019  0.97373167     0.04500
C1959       C  0.40788790  0.44982780  0.99877628     0.27000
C1960       C  0.41303613  0.47212782  0.01104464    -0.13500
C1961       C  0.43752816  0.48107208  0.01214144     0.05100
C1962       C  0.45599067  0.47141180  0.99618893    -0.09500
C1963       C  0.44987249  0.45036902  0.98184547     0.05900
C1964       C  0.42714149  0.43804066  0.98570585    -0.13800
Br1965     Br  0.38419270  0.45163014  0.94537282    -0.05900
Br1966     Br  0.32988441  0.41131204  0.04860977    -0.00300
Br1967     Br  0.44415736  0.50919843  0.03281695     0.00200
Br1968     Br  0.42235508  0.40499516  0.97306426    -0.04200
Br1969     Br  0.33255964  0.41881833  0.94183602     0.00300
Br1970     Br  0.38758616  0.43195824  0.05091310    -0.03500
Br1971     Br  0.38619809  0.49214393  0.02362103    -0.04400
Br1972     Br  0.46951163  0.44017734  0.95416379    -0.00400
C1973       C  0.24374015  0.33717573  0.91600892     0.01000
C1974       C  0.26350218  0.32133411  0.90870829     0.03800
C1975       C  0.26349724  0.31034676  0.88485716    -0.12200
C1976       C  0.24230885  0.31192116  0.86938993     0.23100
C1977       C  0.22220438  0.32642934  0.87745660    -0.12800
C1978       C  0.22456897  0.34144544  0.89852210     0.04500
C1979       C  0.24208656  0.30047453  0.84391795     0.27000
C1980       C  0.23972690  0.31528987  0.82244281    -0.13500
C1981       C  0.23818684  0.30428590  0.79874548     0.05100
C1982       C  0.24436783  0.27894245  0.79530611    -0.09500
C1983       C  0.24962096  0.26498188  0.81705763     0.05900
C1984       C  0.24517412  0.27482227  0.84081303    -0.13800
Br1985     Br  0.19122673  0.32653552  0.85961220    -0.05900
Br1986     Br  0.29281697  0.31784815  0.92910553    -0.00300
Br1987     Br  0.22564503  0.32466202  0.77262453     0.00200
Br1988     Br  0.24258328  0.25288292  0.86895275    -0.04200
Br1989     Br  0.20532952  0.37133713  0.89858309     0.00300
Br1990     Br  0.29347282  0.29521214  0.87246851    -0.03500
Br1991     Br  0.23941181  0.35098462  0.82509955    -0.04400
Br1992     Br  0.26842657  0.23484107  0.81553305    -0.00400
C1993       C  0.16081793  0.41552156  0.24414941     0.01000
C1994       C  0.18680755  0.41478944  0.23989072     0.03800
C1995       C  0.19949050  0.39190626  0.23896699    -0.12200
C1996       C  0.18660697  0.36952291  0.24262922     0.23100
C1997       C  0.16071641  0.37002742  0.24580951    -0.12800
C1998       C  0.14795065  0.39272125  0.24699469     0.04500
C1999       C  0.19993861  0.34525816  0.24288778     0.27000
C2000       C  0.19735767  0.32888918  0.22294769    -0.13500
C2001       C  0.20599719  0.30431322  0.22483052     0.05100
C2002       C  0.22143862  0.29690262  0.24495073    -0.09500
C2003       C  0.22619992  0.31481501  0.26364153     0.05900
C2004       C  0.21422508  0.33801401  0.26344256    -0.13800
Br2005     Br  0.14246580  0.33926984  0.24766640    -0.05900
Br2006     Br  0.20536961  0.44475180  0.23406662    -0.00300
Br2007     Br  0.19466676  0.28182804  0.20000365     0.00200
Br2008     Br  0.21847323  0.36048930  0.29090193    -0.04200
Br2009     Br  0.11284723  0.39151059  0.25369877     0.00300
Br2010     Br  0.23443019  0.39090145  0.23128886    -0.03500
Br2011     Br  0.18275452  0.34091266  0.19253927    -0.04400
Br2012     Br  0.25269761  0.31053982  0.28697193    -0.00400
C2013       C  0.24690666  0.22309620  0.29703089     0.01000
C2014       C  0.23355993  0.20114672  0.30260290     0.03800
C2015       C  0.23714566  0.18899795  0.32551467    -0.12200
C2016       C  0.24794253  0.20178999  0.34551131     0.23100
C2017       C  0.25937508  0.22466202  0.34079605    -0.12800
C2018       C  0.26164414  0.23331411  0.31629110     0.04500
C2019       C  0.24560539  0.19227781  0.37149748     0.27000
C2020       C  0.22190764  0.18866119  0.38208012    -0.13500
C2021       C  0.21960722  0.17779559  0.40575909     0.05100
C2022       C  0.24082208  0.17364565  0.42049509    -0.09500
C2023       C  0.26443523  0.18006407  0.41094658     0.05900
C2024       C  0.26689793  0.18746507  0.38601217    -0.13800
Br2025     Br  0.26944993  0.24565575  0.36799132    -0.05900
Br2026     Br  0.20701567  0.18941322  0.28222945    -0.00300
Br2027     Br  0.18745919  0.16799695  0.41776064     0.00200
Br2028     Br  0.29953376  0.18868929  0.37121204    -0.04200
Br2029     Br  0.28324244  0.26085019  0.31078660     0.00300
Br2030     Br  0.22740546  0.15483388  0.32945810    -0.03500
Br2031     Br  0.19259377  0.19907083  0.36426602    -0.04400
Br2032     Br  0.29403917  0.17603352  0.43073212    -0.00400
C2033       C  0.42090761  0.24877659  0.17583074     0.01000
C2034       C  0.40582818  0.26972619  0.17142033     0.03800
C2035       C  0.38137135  0.27041570  0.18046592    -0.12200
C2036       C  0.37233981  0.25089644  0.19517959     0.23100
C2037       C  0.38863342  0.23196999  0.20271526    -0.12800
C2038       C  0.41319134  0.23166406  0.19395521     0.04500
C2039       C  0.34624755  0.25085849  0.20398377     0.27000
C2040       C  0.33909059  0.26632961  0.22347503    -0.13500
C2041       C  0.31458445  0.26568721  0.23230445     0.05100
C2042       C  0.29740061  0.24777659  0.22354235    -0.09500
C2043       C  0.30547572  0.23123398  0.20481785     0.05900
C2044       C  0.32912715  0.23398740  0.19408105    -0.13800
Br2045     Br  0.37727185  0.20653876  0.22516446    -0.05900
Br2046     Br  0.41880468  0.29829234  0.15440220    -0.00300
Br2047     Br  0.30641476  0.28748306  0.25902980     0.00200
Br2048     Br  0.33857122  0.21433367  0.16579954    -0.04200
Br2049     Br  0.43715619  0.21222029  0.21132802     0.00300
Br2050     Br  0.36002428  0.29770747  0.17209780    -0.03500
Br2051     Br  0.36354748  0.28719237  0.23931052    -0.04400
Br2052     Br  0.28665468  0.20296450  0.19480544    -0.00400
C2053       C  0.33091274  0.08104287  0.26498133     0.01000
C2054       C  0.32634520  0.09440798  0.28701113     0.03800
C2055       C  0.31551572  0.11831073  0.28622471    -0.12200
C2056       C  0.31097154  0.13016674  0.26332639     0.23100
C2057       C  0.31679847  0.11744179  0.24130324    -0.12800
C2058       C  0.32583145  0.09287750  0.24206686     0.04500
C2059       C  0.29999352  0.15584918  0.26213712     0.27000
C2060       C  0.27575853  0.15936941  0.25308272    -0.13500
C2061       C  0.26625009  0.18343540  0.24922308     0.05100
C2062       C  0.27952877  0.20482541  0.25691939    -0.09500
C2063       C  0.30385165  0.20101948  0.26664075     0.05900
C2064       C  0.31413958  0.17686660  0.26845133    -0.13800
Br2065     Br  0.31350828  0.13427447  0.20989218    -0.05900
Br2066     Br  0.33568324  0.08064945  0.31837262    -0.00300
Br2067     Br  0.23659185  0.18645330  0.22962883     0.00200
Br2068     Br  0.34812294  0.17236596  0.27911342    -0.04200
Br2069     Br  0.33304598  0.07637278  0.21127900     0.00300
Br2070     Br  0.30687985  0.13500565  0.31657102    -0.03500
Br2071     Br  0.25550035  0.13084611  0.24559751    -0.04400
Br2072     Br  0.32420954  0.22792774  0.27742698    -0.00400
C2073       C  0.25632364  0.27977151  0.20388461     0.01000
C2074       C  0.24980220  0.26599124  0.18242778     0.03800
C2075       C  0.25067568  0.27657588  0.15846690    -0.12200
C2076       C  0.25571464  0.30190454  0.15523385     0.23100
C2077       C  0.26044247  0.31637328  0.17637817    -0.12800
C2078       C  0.26195966  0.30536648  0.20025136     0.04500
C2079       C  0.25630412  0.31314486  0.12960658     0.27000
C2080       C  0.27904015  0.32048411  0.11894252    -0.13500
C2081       C  0.27982230  0.33100247  0.09498455     0.05100
C2082       C  0.25806027  0.33280672  0.08046408    -0.09500
C2083       C  0.23519244  0.32560022  0.09113849     0.05900
C2084       C  0.23427123  0.31657557  0.11577736    -0.13800
Br2085     Br  0.26393106  0.35180029  0.17244076    -0.05900
Br2086     Br  0.23494700  0.23385061  0.18546627    -0.00300
Br2087     Br  0.31075698  0.34401545  0.08260128     0.00200
Br2088     Br  0.20262749  0.31072676  0.13132372    -0.04200
Br2089     Br  0.27208013  0.32655651  0.22678073     0.00300
Br2090     Br  0.24416556  0.25630695  0.12979236    -0.03500
Br2091     Br  0.30922786  0.31683480  0.13753018    -0.04400
Br2092     Br  0.20466065  0.33020028  0.07295969    -0.00400
C2093       C  0.81701333  0.32104485  0.46929511     0.01000
C2094       C  0.82656190  0.30202625  0.48495753     0.03800
C2095       C  0.84920077  0.29030503  0.47922443    -0.12200
C2096       C  0.86110521  0.29531217  0.45666860     0.23100
C2097       C  0.84984892  0.31146968  0.43954124    -0.12800
C2098       C  0.82874074  0.32521880  0.44617477     0.04500
C2099       C  0.88554845  0.28398464  0.45071741     0.27000
C2100       C  0.90783061  0.29557063  0.45807489    -0.13500
C2101       C  0.93062057  0.28800905  0.44773552     0.05100
C2102       C  0.93098468  0.26921819  0.42980170    -0.09500
C2103       C  0.90965556  0.25420936  0.42723776     0.05900
C2104       C  0.88673244  0.26215813  0.43672461    -0.13800
Br2105     Br  0.86327707  0.31465008  0.40668988    -0.05900
Br2106     Br  0.80966124  0.29151304  0.51459856    -0.00300
Br2107     Br  0.96129270  0.30137051  0.45989946     0.00200
Br2108     Br  0.85687086  0.24370130  0.42985770    -0.04200
Br2109     Br  0.81675991  0.34985545  0.42307752     0.00300
Br2110     Br  0.86450071  0.26788281  0.50260308    -0.03500
Br2111     Br  0.90705264  0.32152985  0.48234457    -0.04400
Br2112     Br  0.91180695  0.22199487  0.41253152    -0.00400
C2113       C  0.17768746  0.18066826  0.48302825     0.01000
C2114       C  0.18206757  0.20619322  0.47924591     0.03800
C2115       C  0.16238744  0.22180264  0.47184035    -0.12200
C2116       C  0.13882864  0.21167237  0.46663049     0.23100
C2117       C  0.13415047  0.18668078  0.47212329    -0.12800
C2118       C  0.15307967  0.17166918  0.48145367     0.04500
C2119       C  0.11973999  0.22556668  0.45242005     0.27000
C2120       C  0.09662564  0.23090449  0.46321142    -0.13500
C2121       C  0.07566694  0.23512376  0.44808054     0.05100
C2122       C  0.07801370  0.23516032  0.42190472    -0.09500
C2123       C  0.10200738  0.23248167  0.41149195     0.05900
C2124       C  0.12261295  0.22781837  0.42670023    -0.13800
Br2125     Br  0.10204688  0.17216291  0.46546731    -0.05900
Br2126     Br  0.21502281  0.21975293  0.48254798    -0.00300
Br2127     Br  0.04367960  0.23828634  0.46374360     0.00200
Br2128     Br  0.15489376  0.22366970  0.41200662    -0.04200
Br2129     Br  0.14392950  0.13939314  0.49339117     0.00300
Br2130     Br  0.16779065  0.25680214  0.46784307    -0.03500
Br2131     Br  0.09371061  0.23038267  0.49883419    -0.04400
Br2132     Br  0.10782713  0.23515700  0.37646661    -0.00400
C2133       C  0.01472744  0.32240012  0.31961073     0.01000
C2134       C  0.00039193  0.34407753  0.32211959     0.03800
C2135       C  0.00710887  0.36553994  0.30913548    -0.12200
C2136       C  0.02744586  0.36483991  0.29295312     0.23100
C2137       C  0.03819289  0.34200889  0.28663246    -0.12800
C2138       C  0.03108371  0.32053568  0.29945458     0.04500
C2139       C  0.04048244  0.38799072  0.28690268     0.27000
C2140       C  0.03771599  0.39945741  0.26371357    -0.13500
C2141       C  0.05182299  0.42060434  0.25796277     0.05100
C2142       C  0.06829939  0.43069461  0.27589957    -0.09500
C2143       C  0.07016452  0.41935788  0.29952954     0.05900
C2144       C  0.05652085  0.39798121  0.30478960    -0.13800
Br2145     Br  0.06391930  0.34050797  0.26196117    -0.05900
Br2146     Br  0.97023040  0.34393670  0.34098980    -0.00300
Br2147     Br  0.04995054  0.43350729  0.22454433     0.00200
Br2148     Br  0.06053643  0.38154680  0.33645058    -0.04200
Br2149     Br  0.04198753  0.28882142  0.28801358     0.00300
Br2150     Br  0.99017984  0.39640925  0.31509845    -0.03500
Br2151     Br  0.01529093  0.38540316  0.23962302    -0.04400
Br2152     Br  0.09130149  0.43246688  0.32530626    -0.00400
C2153       C  0.98598195  0.45375526  0.47216245     0.01000
C2154       C  0.99450619  0.43308107  0.48622166     0.03800
C2155       C  0.99384648  0.40891697  0.47653723    -0.12200
C2156       C  0.98862791  0.40516929  0.45139607     0.23100
C2157       C  0.98184327  0.42550049  0.43659175    -0.12800
C2158       C  0.97869946  0.44913094  0.44718732     0.04500
C2159       C  0.98993416  0.37991526  0.44038555     0.27000
C2160       C  0.01297086  0.36800391  0.43689538    -0.13500
C2161       C  0.01391016  0.34444595  0.42579686     0.05100
C2162       C  0.99206006  0.33362844  0.41606119    -0.09500
C2163       C  0.96926835  0.34634763  0.41837061     0.05900
C2164       C  0.96804119  0.36834423  0.43210238    -0.13800
Br2165     Br  0.97741655  0.42083420  0.40130087    -0.05900
Br2166     Br  0.01177725  0.43721520  0.51694515    -0.00300
Br2167     Br  0.04562410  0.32809695  0.42242784     0.00200
Br2168     Br  0.93619818  0.38242342  0.44014847    -0.04200
Br2169     Br  0.96311126  0.47335407  0.42652512     0.00300
Br2170     Br  0.00053832  0.38074185  0.49767186    -0.03500
Br2171     Br  0.04340791  0.38433020  0.44637712    -0.04400
Br2172     Br  0.93938463  0.33398391  0.40304169    -0.00400
C2173       C  0.79926065  0.24066954  0.27461574     0.01000
C2174       C  0.81685377  0.26009109  0.27173045     0.03800
C2175       C  0.84060722  0.25876394  0.28290128    -0.12200
C2176       C  0.84782920  0.23783323  0.29676933     0.23100
C2177       C  0.83082446  0.21815196  0.29937967    -0.12800
C2178       C  0.80668374  0.21957875  0.28869220     0.04500
C2179       C  0.87244279  0.23779164  0.31023664     0.27000
C2180       C  0.89425761  0.22865068  0.29898516    -0.13500
C2181       C  0.91774533  0.23172812  0.31057692     0.05100
C2182       C  0.91942473  0.24185433  0.33468330    -0.09500
C2183       C  0.89789902  0.25240157  0.34485028     0.05900
C2184       C  0.87469908  0.24975509  0.33327928    -0.13800
Br2185     Br  0.83996878  0.19032977  0.31991541    -0.05900
Br2186     Br  0.80891797  0.28870920  0.25182913    -0.00300
Br2187     Br  0.94750949  0.22461550  0.29221862     0.00200
Br2188     Br  0.84630164  0.26340016  0.34946471    -0.04200
Br2189     Br  0.78241108  0.19569992  0.29903973     0.00300
Br2190     Br  0.86334721  0.28618397  0.27984352    -0.03500
Br2191     Br  0.89188762  0.21147080  0.26793557    -0.04400
Br2192     Br  0.90058517  0.27565593  0.37130541    -0.00400
C2193       C  0.20367405  0.25541939  0.27726979     0.01000
C2194       C  0.19791475  0.26271337  0.30193893     0.03800
C2195       C  0.17316401  0.26243672  0.31048739    -0.12200
C2196       C  0.15337839  0.25870012  0.29391474     0.23100
C2197       C  0.15871278  0.25223421  0.26930655    -0.12800
C2198       C  0.18347378  0.24836788  0.26190463     0.04500
C2199       C  0.12720586  0.26006346  0.30307109     0.27000
C2200       C  0.11315528  0.23826478  0.30588098    -0.13500
C2201       C  0.08941803  0.23912398  0.31674991     0.05100
C2202       C  0.08010457  0.26142948  0.32677444    -0.09500
C2203       C  0.09443501  0.28322042  0.32422094     0.05900
C2204       C  0.11729946  0.28268758  0.31153385    -0.13800
Br2205     Br  0.13209212  0.24857359  0.24560253    -0.05900
Br2206     Br  0.22206663  0.27432357  0.32500938    -0.00300
Br2207     Br  0.07150586  0.20870922  0.32075539     0.00200
Br2208     Br  0.13574856  0.31289200  0.30683154    -0.04200
Br2209     Br  0.18897128  0.22975772  0.23221714     0.00300
Br2210     Br  0.16612443  0.26648203  0.34540091    -0.03500
Br2211     Br  0.12753099  0.20666304  0.29726294    -0.04400
Br2212     Br  0.08323110  0.31393482  0.33840941    -0.00400
C2213       C  0.77599652  0.41697353  0.57216675     0.01000
C2214       C  0.76126892  0.43735204  0.58026128     0.03800
C2215       C  0.76934288  0.45222986  0.60012464    -0.12200
C2216       C  0.79133752  0.44637474  0.61285603     0.23100
C2217       C  0.80574067  0.42614601  0.60534762    -0.12800
C2218       C  0.79874414  0.41206126  0.58466236     0.04500
C2219       C  0.80001066  0.46158961  0.63397921     0.27000
C2220       C  0.81934111  0.47871964  0.63045286    -0.13500
C2221       C  0.83058870  0.49000711  0.65101865     0.05100
C2222       C  0.82290701  0.48386535  0.67525954    -0.09500
C2223       C  0.80122056  0.46972306  0.67830392     0.05900
C2224       C  0.79052145  0.45755037  0.65791605    -0.13800
Br2225     Br  0.83508445  0.41750929  0.62415635    -0.05900
Br2226     Br  0.72928674  0.44513214  0.56572446    -0.00300
Br2227     Br  0.85463039  0.51565648  0.64552181     0.00200
Br2228     Br  0.76454286  0.43356604  0.66305653    -0.04200
Br2229     Br  0.82168663  0.38698204  0.57358506     0.00300
Br2230     Br  0.75018711  0.48064585  0.61033496    -0.03500
Br2231     Br  0.83158362  0.48524388  0.59750453    -0.04400
Br2232     Br  0.78515032  0.46849916  0.70976856    -0.00400
C2233       C  0.77768102  0.58307190  0.92955531     0.01000
C2234       C  0.80188098  0.58494138  0.91941546     0.03800
C2235       C  0.80913691  0.56915127  0.90007753    -0.12200
C2236       C  0.79202817  0.55248868  0.88973126     0.23100
C2237       C  0.76819246  0.55023610  0.89985910    -0.12800
C2238       C  0.76071270  0.56600137  0.91904842     0.04500
C2239       C  0.79834907  0.53939893  0.86655555     0.27000
C2240       C  0.79155422  0.54976018  0.84351018    -0.13500
C2241       C  0.79966759  0.53871374  0.82143762     0.05100
C2242       C  0.81661732  0.51906176  0.82241007    -0.09500
C2243       C  0.82045896  0.50670264  0.84518552     0.05900
C2244       C  0.81164851  0.51706414  0.86732575    -0.13800
Br2245     Br  0.74586424  0.52524064  0.88746598    -0.05900
Br2246     Br  0.82509796  0.60988220  0.93018911    -0.00300
Br2247     Br  0.78644025  0.54921906  0.79009183     0.00200
Br2248     Br  0.81901401  0.50164820  0.89879068    -0.04200
Br2249     Br  0.72600827  0.56653534  0.92763521     0.00300
Br2250     Br  0.84276447  0.56986030  0.88778376    -0.03500
Br2251     Br  0.77335152  0.58042542  0.84215789    -0.04400
Br2252     Br  0.83522580  0.47438823  0.84596359    -0.00400
C2253       C  0.91546274  0.51173713  0.67009572     0.01000
C2254       C  0.91833437  0.53350367  0.65579015     0.03800
C2255       C  0.92855454  0.53257948  0.63172281    -0.12200
C2256       C  0.93624273  0.50994609  0.62131505     0.23100
C2257       C  0.93315651  0.48805234  0.63536063    -0.12800
C2258       C  0.92280519  0.48889801  0.65948736     0.04500
C2259       C  0.94694443  0.50929294  0.59547465     0.27000
C2260       C  0.93169107  0.51286715  0.57457705    -0.13500
C2261       C  0.94205754  0.51484933  0.55051349     0.05100
C2262       C  0.96756989  0.50919494  0.54616507    -0.09500
C2263       C  0.98211554  0.50339296  0.56744890     0.05900
C2264       C  0.97244778  0.50548838  0.59168282    -0.13800
Br2265     Br  0.94175997  0.45662187  0.62086402    -0.05900
Br2266     Br  0.90776478  0.56488148  0.66873177    -0.00300
Br2267     Br  0.92035517  0.52660979  0.52501198     0.00200
Br2268     Br  0.99427170  0.50259061  0.61990629    -0.04200
Br2269     Br  0.91648273  0.45823741  0.67679206     0.00300
Br2270     Br  0.93097480  0.56244606  0.61243701    -0.03500
Br2271     Br  0.89616196  0.51415338  0.57908808    -0.04400
Br2272     Br  0.01344975  0.48703254  0.56431748    -0.00400
C2273       C  0.90871283  0.48941616  0.83470479     0.01000
C2274       C  0.91894548  0.51103054  0.84545015     0.03800
C2275       C  0.92899948  0.51038702  0.86967799    -0.12200
C2276       C  0.93033896  0.48796295  0.88311109     0.23100
C2277       C  0.92011286  0.46645225  0.87255557    -0.12800
C2278       C  0.90874644  0.46733786  0.84893015     0.04500
C2279       C  0.94276645  0.48703000  0.90811448     0.27000
C2280       C  0.96869249  0.48832425  0.90996820    -0.13500
C2281       C  0.98032093  0.49141187  0.93322295     0.05100
C2282       C  0.96695799  0.48870218  0.95579616    -0.09500
C2283       C  0.94080142  0.48432225  0.95345894     0.05900
C2284       C  0.92884723  0.48528288  0.93001711    -0.13800
Br2285     Br  0.92162287  0.43568593  0.89076671    -0.05900
Br2286     Br  0.91785028  0.54222755  0.82789919    -0.00300
Br2287     Br  0.01311629  0.50507620  0.93286203     0.00200
Br2288     Br  0.89302589  0.48430162  0.92757696    -0.04200
Br2289     Br  0.89317311  0.43800127  0.83651673     0.00300
Br2290     Br  0.93971371  0.54064240  0.88511292    -0.03500
Br2291     Br  0.98832108  0.48569120  0.88027421    -0.04400
Br2292     Br  0.91995819  0.47560151  0.98073143    -0.00400
C2293       C  0.82879089  0.58486986  0.76200675     0.01000
C2294       C  0.82815464  0.59836164  0.78444289     0.03800
C2295       C  0.81752513  0.62226820  0.78529181    -0.12200
C2296       C  0.80813328  0.63369971  0.76365178     0.23100
C2297       C  0.80948156  0.62063097  0.74109962    -0.12800
C2298       C  0.81922033  0.59628708  0.74031843     0.04500
C2299       C  0.79842575  0.65995115  0.76419666     0.27000
C2300       C  0.77292910  0.66501287  0.76169895    -0.13500
C2301       C  0.76432075  0.68966228  0.75938035     0.05100
C2302       C  0.78020236  0.71024295  0.76374661    -0.09500
C2303       C  0.80612167  0.70474520  0.76687742     0.05900
C2304       C  0.81495978  0.68003424  0.76551045    -0.13800
Br2305     Br  0.79975977  0.63700551  0.71080709    -0.05900
Br2306     Br  0.84220211  0.58448139  0.81435582    -0.00300
Br2307     Br  0.73213232  0.69453820  0.74465520     0.00200
Br2308     Br  0.85018488  0.67336690  0.76377035    -0.04200
Br2309     Br  0.82132602  0.57971334  0.70880545     0.00300
Br2310     Br  0.81684868  0.63969713  0.81622064    -0.03500
Br2311     Br  0.74969385  0.63792980  0.76047723    -0.04400
Br2312     Br  0.83098672  0.72931245  0.77388438    -0.00400
C2313       C  0.72384408  0.19876013  0.75989365     0.01000
C2314       C  0.73483749  0.17732287  0.74933018     0.03800
C2315       C  0.72303070  0.15392084  0.75109256    -0.12200
C2316       C  0.70336869  0.15019061  0.76792732     0.23100
C2317       C  0.69505755  0.17077401  0.78155759    -0.12800
C2318       C  0.70261513  0.19492341  0.77494465     0.04500
C2319       C  0.68942820  0.12589872  0.76918202     0.27000
C2320       C  0.66375120  0.12537180  0.76387379    -0.13500
C2321       C  0.65008784  0.10342686  0.76712931     0.05100
C2322       C  0.66237124  0.08027667  0.76859284    -0.09500
C2323       C  0.68816583  0.08053046  0.77395579     0.05900
C2324       C  0.70100179  0.10340260  0.77623035    -0.13800
Br2325     Br  0.67290495  0.16603560  0.80926060    -0.05900
Br2326     Br  0.76535029  0.17952769  0.73102980    -0.00300
Br2327     Br  0.61487329  0.10687410  0.77317423     0.00200
Br2328     Br  0.73373858  0.10397360  0.79062610    -0.04200
Br2329     Br  0.67998056  0.22099160  0.78266186     0.00300
Br2330     Br  0.73243754  0.12776854  0.72874400    -0.03500
Br2331     Br  0.64700224  0.15423403  0.75072980    -0.04400
Br2332     Br  0.70533805  0.04996140  0.78062992    -0.00400
C2333       C  0.75738894  0.21957185  0.79782994     0.01000
C2334       C  0.73971128  0.22731271  0.81564871     0.03800
C2335       C  0.73841300  0.21600319  0.83906587    -0.12200
C2336       C  0.75673787  0.19914215  0.84655037     0.23100
C2337       C  0.77578017  0.19282989  0.82996044    -0.12800
C2338       C  0.77546293  0.20192370  0.80535388     0.04500
C2339       C  0.75491300  0.18701864  0.87133400     0.27000
C2340       C  0.76362890  0.19889757  0.89289438    -0.13500
C2341       C  0.76024672  0.18779125  0.91639584     0.05100
C2342       C  0.74969611  0.16391435  0.91825033    -0.09500
C2343       C  0.73873239  0.15354965  0.89693205     0.05900
C2344       C  0.74197454  0.16456736  0.87357493    -0.13800
Br2345     Br  0.80241990  0.17184824  0.84140019    -0.05900
Br2346     Br  0.71963588  0.25620164  0.81030684    -0.00300
Br2347     Br  0.76865340  0.20600369  0.94580112     0.00200
Br2348     Br  0.72826365  0.14902791  0.84452957    -0.04200
Br2349     Br  0.79983665  0.18942238  0.78284054     0.00300
Br2350     Br  0.71118512  0.22347310  0.86098372    -0.03500
Br2351     Br  0.78068181  0.23007714  0.89005642    -0.04400
Br2352     Br  0.71511770  0.12724385  0.90005325    -0.00400
C2353       C  0.70337472  0.23855505  0.72471256     0.01000
C2354       C  0.69491663  0.21908096  0.70907705     0.03800
C2355       C  0.66978200  0.21760151  0.70164023    -0.12200
C2356       C  0.65321334  0.23698478  0.70675600     0.23100
C2357       C  0.66140429  0.25682269  0.72137380    -0.12800
C2358       C  0.68562440  0.25681882  0.73145710     0.04500
C2359       C  0.62847577  0.23789965  0.69399465     0.27000
C2360       C  0.62762821  0.24275272  0.66844703    -0.13500
C2361       C  0.60492458  0.24241168  0.65548984     0.05100
C2362       C  0.58204548  0.23918642  0.66823290    -0.09500
C2363       C  0.58301362  0.23568342  0.69429033     0.05900
C2364       C  0.60608292  0.23388863  0.70683124    -0.13800
Br2365     Br  0.63952298  0.28455062  0.72688451    -0.05900
Br2366     Br  0.71670172  0.19520089  0.69491244    -0.00300
Br2367     Br  0.60648255  0.24735930  0.62022860     0.00200
Br2368     Br  0.60717251  0.22529675  0.74153741    -0.04200
Br2369     Br  0.69282262  0.28075152  0.75658703     0.00300
Br2370     Br  0.65780778  0.18926791  0.68330137    -0.03500
Br2371     Br  0.65808151  0.25031738  0.65117259    -0.04400
Br2372     Br  0.55312889  0.23339755  0.71337625    -0.00400
C2373       C  0.74377004  0.27120793  0.70290160     0.01000
C2374       C  0.75001063  0.25619244  0.68222313     0.03800
C2375       C  0.74727768  0.26491298  0.65773930    -0.12200
C2376       C  0.74255871  0.29005445  0.65320609     0.23100
C2377       C  0.73867635  0.30589711  0.67347671    -0.12800
C2378       C  0.73761884  0.29637785  0.69791136     0.04500
C2379       C  0.74245477  0.30010666  0.62729303     0.27000
C2380       C  0.76477843  0.30256404  0.61381098    -0.13500
C2381       C  0.76467740  0.31329854  0.58991301     0.05100
C2382       C  0.74245759  0.32278879  0.57970503    -0.09500
C2383       C  0.72039669  0.32089701  0.59356877     0.05900
C2384       C  0.72018132  0.30876641  0.61664981    -0.13800
Br2385     Br  0.73598836  0.34111898  0.66759215    -0.05900
Br2386     Br  0.76829996  0.22603858  0.68648392    -0.00300
Br2387     Br  0.79559784  0.31745636  0.57259989     0.00200
Br2388     Br  0.68928472  0.30488262  0.63408040    -0.04200
Br2389     Br  0.72791868  0.31894175  0.72337862     0.00300
Br2390     Br  0.75080206  0.24241903  0.63022684    -0.03500
Br2391     Br  0.79587404  0.29298380  0.62880229    -0.04400
Br2392     Br  0.69047383  0.33610148  0.58165377    -0.00400
C2393       C  0.77880150  0.29243059  0.74348312     0.01000
C2394       C  0.77474492  0.30976171  0.76280557     0.03800
C2395       C  0.78765821  0.33246461  0.76375145    -0.12200
C2396       C  0.79981807  0.34167265  0.74256384     0.23100
C2397       C  0.80168699  0.32580082  0.72186693    -0.12800
C2398       C  0.79358048  0.30080650  0.72327779     0.04500
C2399       C  0.81044641  0.36770678  0.74192315     0.27000
C2400       C  0.79543716  0.38877915  0.74594648    -0.13500
C2401       C  0.80611335  0.41274226  0.74755826     0.05100
C2402       C  0.83087667  0.41715797  0.73937253    -0.09500
C2403       C  0.84529642  0.39571382  0.73318270     0.05900
C2404       C  0.83587512  0.37156817  0.73734308    -0.13800
Br2405     Br  0.81443375  0.33857825  0.69093525    -0.05900
Br2406     Br  0.74686489  0.30652925  0.78448950    -0.00300
Br2407     Br  0.78690784  0.43780914  0.76416529     0.00200
Br2408     Br  0.85839720  0.34368046  0.73895394    -0.04200
Br2409     Br  0.80424632  0.27911068  0.69749591     0.00300
Br2410     Br  0.78885816  0.35039201  0.79461372    -0.03500
Br2411     Br  0.75989458  0.38516983  0.74874730    -0.04400
Br2412     Br  0.87879236  0.39759421  0.72027580    -0.00400
C2413       C  0.52203307  0.82427751  0.83067591     0.01000
C2414       C  0.51488326  0.82452017  0.80518510     0.03800
C2415       C  0.52152509  0.84461097  0.78991030    -0.12200
C2416       C  0.53668011  0.86347947  0.79924654     0.23100
C2417       C  0.54455300  0.86300875  0.82398814    -0.12800
C2418       C  0.53617472  0.84447404  0.84003609     0.04500
C2419       C  0.54488643  0.88416813  0.78347891     0.27000
C2420       C  0.56567962  0.88111203  0.76819071    -0.13500
C2421       C  0.57802515  0.90203228  0.75908891     0.05100
C2422       C  0.57050691  0.92589348  0.76667839    -0.09500
C2423       C  0.54744649  0.92879881  0.77843175     0.05900
C2424       C  0.53469304  0.90786884  0.78706105    -0.13800
Br2425     Br  0.56728720  0.88803056  0.83586535    -0.05900
Br2426     Br  0.49629159  0.79792396  0.79002837    -0.00300
Br2427     Br  0.60332171  0.89744791  0.73448092     0.00200
Br2428     Br  0.50458630  0.91162664  0.80585231    -0.04200
Br2429     Br  0.54300995  0.84937216  0.87498134     0.00300
Br2430     Br  0.50995834  0.84664282  0.75604854    -0.03500
Br2431     Br  0.57832969  0.84839276  0.76126166    -0.04400
Br2432     Br  0.53332084  0.96114798  0.78281170    -0.00400
C2433       C  0.67864156  0.67677949  0.98135672     0.01000
C2434       C  0.68366858  0.70045613  0.97159134     0.03800
C2435       C  0.66467989  0.71351951  0.95946450    -0.12200
C2436       C  0.64079790  0.70314197  0.95810689     0.23100
C2437       C  0.63530816  0.68073253  0.97009738    -0.12800
C2438       C  0.65403930  0.66811342  0.98254876     0.04500
C2439       C  0.62105981  0.71488272  0.94370679     0.27000
C2440       C  0.60206567  0.72724509  0.95618801    -0.13500
C2441       C  0.57955842  0.73209349  0.94409465     0.05100
C2442       C  0.57619165  0.72471238  0.91901797    -0.09500
C2443       C  0.59594076  0.71224520  0.90660527     0.05900
C2444       C  0.61842259  0.70834297  0.91885496    -0.13800
Br2445     Br  0.60234257  0.66648959  0.96834843    -0.05900
Br2446     Br  0.71595636  0.71530510  0.97528545    -0.00300
Br2447     Br  0.55369712  0.74727300  0.96358845     0.00200
Br2448     Br  0.64570691  0.69306840  0.90181703    -0.04200
Br2449     Br  0.64503210  0.64061970  0.00330662     0.00300
Br2450     Br  0.67148419  0.74469730  0.94348370    -0.03500
Br2451     Br  0.60690735  0.73607768  0.99053367    -0.04400
Br2452     Br  0.59336208  0.69840870  0.87345537    -0.00400
C2453       C  0.47766167  0.67822700  0.82630808     0.01000
C2454       C  0.48598852  0.67648928  0.80140261     0.03800
C2455       C  0.48384060  0.65389046  0.78842305    -0.12200
C2456       C  0.46870134  0.63487676  0.79790005     0.23100
C2457       C  0.45787062  0.63795313  0.82120565    -0.12800
C2458       C  0.46513171  0.65729536  0.83661801     0.04500
C2459       C  0.46182820  0.61265995  0.78313820     0.27000
C2460       C  0.44403176  0.61484178  0.76417450    -0.13500
C2461       C  0.43218660  0.59358730  0.75506851     0.05100
C2462       C  0.43595670  0.57050413  0.76672670    -0.09500
C2463       C  0.45683767  0.56765347  0.78219610     0.05900
C2464       C  0.46974954  0.58880646  0.79055447    -0.13800
Br2465     Br  0.43029614  0.61789241  0.83109541    -0.05900
Br2466     Br  0.49868338  0.70475553  0.78360174    -0.00300
Br2467     Br  0.41281182  0.59597043  0.72520797     0.00200
Br2468     Br  0.49766742  0.58531855  0.81263571    -0.04200
Br2469     Br  0.45896021  0.65203093  0.87173773     0.00300
Br2470     Br  0.50130210  0.64899322  0.75773305    -0.03500
Br2471     Br  0.43405928  0.64699968  0.75219965    -0.04400
Br2472     Br  0.46859231  0.53504716  0.79045638    -0.00400
C2473       C  0.51619432  0.66527398  0.91298479     0.01000
C2474       C  0.51785226  0.64318791  0.89860726     0.03800
C2475       C  0.51532866  0.61969564  0.90996127    -0.12200
C2476       C  0.51511889  0.61734174  0.93593037     0.23100
C2477       C  0.51698386  0.63894593  0.95039009    -0.12800
C2478       C  0.51624969  0.66267006  0.93919028     0.04500
C2479       C  0.51320518  0.59219858  0.94797634     0.27000
C2480       C  0.49149034  0.58509660  0.96048508    -0.13500
C2481       C  0.49054887  0.56251524  0.97374080     0.05100
C2482       C  0.50972553  0.54451211  0.97176611    -0.09500
C2483       C  0.53092112  0.55134605  0.95746906     0.05900
C2484       C  0.53322582  0.57550886  0.94736735    -0.13800
Br2485     Br  0.52104857  0.63589874  0.98576118    -0.05900
Br2486     Br  0.52442975  0.64370085  0.86337789    -0.00300
Br2487     Br  0.46564787  0.55966386  0.99888581     0.00200
Br2488     Br  0.56440974  0.58658027  0.93364649    -0.04200
Br2489     Br  0.51616877  0.69120813  0.96052044     0.00300
Br2490     Br  0.51094352  0.59054827  0.88978764    -0.03500
Br2491     Br  0.46310547  0.60689747  0.96011036    -0.04400
Br2492     Br  0.55710702  0.52863840  0.95022984    -0.00400
C2493       C  0.70049397  0.75510033  0.77400410     0.01000
C2494       C  0.69150411  0.73961357  0.79345158     0.03800
C2495       C  0.66886549  0.74543213  0.80528162    -0.12200
C2496       C  0.65247679  0.76276545  0.79465886     0.23100
C2497       C  0.65898743  0.77322415  0.77165884    -0.12800
C2498       C  0.68107922  0.76566939  0.75990934     0.04500
C2499       C  0.62670952  0.76527281  0.80496557     0.27000
C2500       C  0.60813711  0.74823324  0.79814678    -0.13500
C2501       C  0.58495693  0.74778774  0.81046580     0.05100
C2502       C  0.57980302  0.76456749  0.83007278    -0.09500
C2503       C  0.59870611  0.78194677  0.83649708     0.05900
C2504       C  0.62164109  0.78246484  0.82370970    -0.13800
Br2505     Br  0.63550025  0.79304742  0.75353304    -0.05900
Br2506     Br  0.70207490  0.70582414  0.79693223    -0.00300
Br2507     Br  0.56198543  0.72187689  0.80171762     0.00200
Br2508     Br  0.64692743  0.80625455  0.83225589    -0.04200
Br2509     Br  0.67363350  0.74691215  0.73079144     0.00300
Br2510     Br  0.65972413  0.72887650  0.83550502    -0.03500
Br2511     Br  0.61528447  0.72435302  0.77256646    -0.04400
Br2512     Br  0.59464827  0.80475418  0.86360802    -0.00400
C2513       C  0.49414714  0.82811382  0.92826106     0.01000
C2514       C  0.51352900  0.83275916  0.94558308     0.03800
C2515       C  0.51371142  0.85468611  0.95983480    -0.12200
C2516       C  0.49599576  0.87338651  0.95558254     0.23100
C2517       C  0.47691887  0.86912535  0.93828047    -0.12800
C2518       C  0.47531465  0.84636338  0.92553673     0.04500
C2519       C  0.49954095  0.89856541  0.96673287     0.27000
C2520       C  0.48967857  0.90474786  0.99004814    -0.13500
C2521       C  0.49502619  0.92803705  0.00054712     0.05100
C2522       C  0.50463017  0.94726892  0.98576315    -0.09500
C2523       C  0.52076719  0.93865203  0.96663764     0.05900
C2524       C  0.51654727  0.91514345  0.95591526    -0.13800
Br2525     Br  0.45378720  0.89527017  0.93082171    -0.05900
Br2526     Br  0.54175255  0.81104529  0.94841010    -0.00300
Br2527     Br  0.50881912  0.92663898  0.03319650     0.00200
Br2528     Br  0.53445487  0.90514460  0.92675724    -0.04200
Br2529     Br  0.44665338  0.84061233  0.90477595     0.00300
Br2530     Br  0.53920156  0.86003438  0.98447259    -0.03500
Br2531     Br  0.47240948  0.88040153  0.00946820    -0.04400
Br2532     Br  0.55203651  0.95417658  0.95902050    -0.00400
C2533       C  0.22740481  0.79744614  0.75892909     0.01000
C2534       C  0.24251489  0.81666457  0.74896959     0.03800
C2535       C  0.23410784  0.84148332  0.74803746    -0.12200
C2536       C  0.21145617  0.84816854  0.75911336     0.23100
C2537       C  0.19766779  0.82968329  0.77139874    -0.12800
C2538       C  0.20449809  0.80446265  0.76973439     0.04500
C2539       C  0.20007284  0.87332608  0.75476328     0.27000
C2540       C  0.20998952  0.89516351  0.76521296    -0.13500
C2541       C  0.19858444  0.91840335  0.76060610     0.05100
C2542       C  0.17502326  0.91959938  0.74899261    -0.09500
C2543       C  0.16585069  0.89791368  0.73769751     0.05900
C2544       C  0.17875929  0.87533360  0.73969571    -0.13800
Br2545     Br  0.16879251  0.83920258  0.79019544    -0.05900
Br2546     Br  0.27311609  0.80902718  0.73251816    -0.00300
Br2547     Br  0.21582946  0.94827715  0.76941018     0.00200
Br2548     Br  0.16716671  0.84700714  0.72144595    -0.04200
Br2549     Br  0.18038458  0.78044568  0.77973401     0.00300
Br2550     Br  0.25268754  0.86589659  0.72952388    -0.03500
Br2551     Br  0.23809391  0.89315837  0.78722267    -0.04400
Br2552     Br  0.13652140  0.89912488  0.71760323    -0.00400
C2553       C  0.33711696  0.58307932  0.74441695     0.01000
C2554       C  0.31223322  0.58403189  0.73576229     0.03800
C2555       C  0.29926574  0.60682770  0.73476026    -0.12200
C2556       C  0.31093355  0.62884661  0.74238652     0.23100
C2557       C  0.33505286  0.62773339  0.75213167    -0.12800
C2558       C  0.34736376  0.60491318  0.75457688     0.04500
C2559       C  0.29762934  0.65312449  0.74183839     0.27000
C2560       C  0.30140448  0.66976920  0.72219788    -0.13500
C2561       C  0.29162885  0.69404894  0.72316163     0.05100
C2562       C  0.27632495  0.70158395  0.74332185    -0.09500
C2563       C  0.27099852  0.68358783  0.76181293     0.05900
C2564       C  0.28259806  0.66023357  0.76176958    -0.13800
Br2565     Br  0.35106970  0.65777408  0.76257074    -0.05900
Br2566     Br  0.29481335  0.55425335  0.72715615    -0.00300
Br2567     Br  0.30016106  0.71555633  0.69627264     0.00200
Br2568     Br  0.27802287  0.63782388  0.78928020    -0.04200
Br2569     Br  0.37485841  0.60329662  0.77716226     0.00300
Br2570     Br  0.26536619  0.60815218  0.72328330    -0.03500
Br2571     Br  0.32041694  0.65885298  0.69395558    -0.04400
Br2572     Br  0.24446362  0.68857292  0.78497730    -0.00400
C2573       C  0.41679796  0.74331944  0.83945187     0.01000
C2574       C  0.40351535  0.72103399  0.83642240     0.03800
C2575       C  0.38124118  0.72047914  0.82279838    -0.12200
C2576       C  0.37043682  0.74252086  0.81394318     0.23100
C2577       C  0.38267337  0.76517814  0.81849748    -0.12800
C2578       C  0.40579012  0.76558166  0.83098408     0.04500
C2579       C  0.34529012  0.74177537  0.80188681     0.27000
C2580       C  0.34246199  0.74552477  0.77630112    -0.13500
C2581       C  0.31853999  0.74597246  0.76545479     0.05100
C2582       C  0.29695596  0.73935876  0.77917875    -0.09500
C2583       C  0.30059117  0.73374156  0.80485361     0.05900
C2584       C  0.32410893  0.73681946  0.81618801    -0.13800
Br2585     Br  0.36729766  0.79580889  0.80857085    -0.05900
Br2586     Br  0.41425808  0.69123136  0.85231531    -0.00300
Br2587     Br  0.31577278  0.76073057  0.73325640     0.00200
Br2588     Br  0.32747984  0.73560283  0.85189240    -0.04200
Br2589     Br  0.42065699  0.79701186  0.83927671     0.00300
Br2590     Br  0.36536386  0.68921550  0.81649396    -0.03500
Br2591     Br  0.37155602  0.75120664  0.75625956    -0.04400
Br2592     Br  0.27487648  0.72120991  0.82585496    -0.00400
C2593       C  0.21637934  0.56964954  0.43212936     0.01000
C2594       C  0.23161318  0.55008060  0.42329807     0.03800
C2595       C  0.22566197  0.53816851  0.40084003    -0.12200
C2596       C  0.20423012  0.54499728  0.38761121     0.23100
C2597       C  0.18792897  0.56261874  0.39746567    -0.12800
C2598       C  0.19359151  0.57450111  0.41979293     0.04500
C2599       C  0.19782413  0.53338205  0.36363999     0.27000
C2600       C  0.20349854  0.54551130  0.34121659    -0.13500
C2601       C  0.19251872  0.53750256  0.31900703     0.05100
C2602       C  0.17397964  0.51923766  0.31969271    -0.09500
C2603       C  0.17187456  0.50434851  0.34113754     0.05900
C2604       C  0.18334314  0.51175702  0.36327855    -0.13800
Br2605     Br  0.15802328  0.57119345  0.37965919    -0.05900
Br2606     Br  0.26026105  0.53862059  0.44155878    -0.00300
Br2607     Br  0.20490890  0.54930018  0.28780904     0.00200
Br2608     Br  0.17780065  0.49337200  0.39344075    -0.04200
Br2609     Br  0.16902615  0.59675187  0.43323985     0.00300
Br2610     Br  0.24716169  0.51292890  0.38762540    -0.03500
Br2611     Br  0.22464374  0.57419117  0.34119702    -0.04400
Br2612     Br  0.15482858  0.47306307  0.34015760    -0.00400
C2613       C  0.26706221  0.57362230  0.57593075     0.01000
C2614       C  0.27955556  0.55095242  0.57246674     0.03800
C2615       C  0.28989652  0.53846041  0.59298196    -0.12200
C2616       C  0.28603072  0.54762662  0.61702107     0.23100
C2617       C  0.27080480  0.56831481  0.62071691    -0.12800
C2618       C  0.26113379  0.58110491  0.60030178     0.04500
C2619       C  0.30087441  0.53868413  0.63818363     0.27000
C2620       C  0.29243635  0.51927879  0.65338808    -0.13500
C2621       C  0.30534928  0.51333818  0.67534910     0.05100
C2622       C  0.32634516  0.52763618  0.68246088    -0.09500
C2623       C  0.33289069  0.54861672  0.66811662     0.05900
C2624       C  0.32134201  0.55296020  0.64540916    -0.13800
Br2625     Br  0.26547131  0.58062725  0.65397467    -0.05900
Br2626     Br  0.28305706  0.53726461  0.53981537    -0.00300
Br2627     Br  0.29325776  0.48613251  0.69527342     0.00200
Br2628     Br  0.33334059  0.57913613  0.62423819    -0.04200
Br2629     Br  0.23842353  0.60753300  0.60673792     0.00300
Br2630     Br  0.31146855  0.51049250  0.58813590    -0.03500
Br2631     Br  0.26305376  0.50112392  0.64405033    -0.04400
Br2632     Br  0.35624384  0.57321063  0.67976580    -0.00400
C2633       C  0.31630683  0.66859876  0.46955492     0.01000
C2634       C  0.32959488  0.68586512  0.48428052     0.03800
C2635       C  0.35060634  0.69812608  0.47462100    -0.12200
C2636       C  0.35711737  0.69524096  0.44961673     0.23100
C2637       C  0.34246940  0.68028615  0.43421249    -0.12800
C2638       C  0.32360069  0.66552870  0.44440461     0.04500
C2639       C  0.38109618  0.70499573  0.44013576     0.27000
C2640       C  0.38444913  0.73035799  0.43514470    -0.13500
C2641       C  0.40762422  0.73906910  0.42663073     0.05100
C2642       C  0.42621241  0.72204569  0.41939725    -0.09500
C2643       C  0.42098878  0.69641887  0.42121304     0.05900
C2644       C  0.40012691  0.68822720  0.43430109    -0.13800
Br2645     Br  0.34916579  0.67932852  0.39902008    -0.05900
Br2646     Br  0.32118888  0.69146836  0.51842282    -0.00300
Br2647     Br  0.41231406  0.77414398  0.42193157     0.00200
Br2648     Br  0.39731942  0.65371845  0.44347730    -0.04200
Br2649     Br  0.31005919  0.64010471  0.42336874     0.00300
Br2650     Br  0.37180025  0.71746417  0.49598223    -0.03500
Br2651     Br  0.35655637  0.75256037  0.43753874    -0.04400
Br2652     Br  0.43896623  0.67207645  0.40250940    -0.00400
C2653       C  0.45143918  0.52740783  0.50365488     0.01000
C2654       C  0.43036563  0.51309675  0.49669688     0.03800
C2655       C  0.40593655  0.52215308  0.49964692    -0.12200
C2656       C  0.40175271  0.54720783  0.50504634     0.23100
C2657       C  0.42240525  0.56254438  0.50926230    -0.12800
C2658       C  0.44672118  0.55252160  0.51046598     0.04500
C2659       C  0.37579068  0.55758038  0.50586689     0.27000
C2660       C  0.36217336  0.56165335  0.48383341    -0.13500
C2661       C  0.33785045  0.57153948  0.48468030     0.05100
C2662       C  0.32713047  0.57849818  0.50751852    -0.09500
C2663       C  0.34142354  0.57580421  0.52929983     0.05900
C2664       C  0.36513696  0.56468478  0.52861582    -0.13800
Br2665     Br  0.41707816  0.59776481  0.51267318    -0.05900
Br2666     Br  0.43408305  0.48314449  0.47813030    -0.00300
Br2667     Br  0.32043157  0.57806122  0.45412126     0.00200
Br2668     Br  0.38350969  0.56008820  0.55892986    -0.04200
Br2669     Br  0.47194351  0.57428288  0.52251636     0.00300
Br2670     Br  0.37799120  0.50008192  0.49629013    -0.03500
Br2671     Br  0.37771614  0.55564109  0.45227861    -0.04400
Br2672     Br  0.32923531  0.58870329  0.56004874    -0.00400
C2673       C  0.04090849  0.52561415  0.48960798     0.01000
C2674       C  0.04684004  0.54822509  0.47760060     0.03800
C2675       C  0.07180971  0.55614662  0.47554528    -0.12200
C2676       C  0.09108984  0.54299929  0.48735638     0.23100
C2677       C  0.08543759  0.52072873  0.49957845    -0.12800
C2678       C  0.06084690  0.51176575  0.50000013     0.04500
C2679       C  0.11626622  0.55454771  0.49029120     0.27000
C2680       C  0.13741951  0.54494613  0.47835265    -0.13500
C2681       C  0.16107122  0.55544948  0.48276051     0.05100
C2682       C  0.16338011  0.57773888  0.49622745    -0.09500
C2683       C  0.14250181  0.58610817  0.50953760     0.05900
C2684       C  0.11928712  0.57447010  0.50675772    -0.13800
Br2685     Br  0.11113178  0.50354741  0.51789787    -0.05900
Br2686     Br  0.02144745  0.57013454  0.46592968    -0.00300
Br2687     Br  0.19004063  0.53724343  0.47328793     0.00200
Br2688     Br  0.09152161  0.58554859  0.52604921    -0.04200
Br2689     Br  0.05485169  0.48210832  0.51851755     0.00300
Br2690     Br  0.07993208  0.58578771  0.45727167    -0.03500
Br2691     Br  0.13397414  0.51785703  0.45547793    -0.04400
Br2692     Br  0.14611604  0.61100450  0.53457493    -0.00400
C2693       C  0.24040813  0.72270793  0.70435562     0.01000
C2694       C  0.23324822  0.69762270  0.70051078     0.03800
C2695       C  0.23379902  0.68702558  0.67654306    -0.12200
C2696       C  0.23779679  0.70184466  0.65538632     0.23100
C2697       C  0.24254860  0.72721284  0.65878219    -0.12800
C2698       C  0.24595479  0.73691759  0.68282828     0.04500
C2699       C  0.23783183  0.69055794  0.62982659     0.27000
C2700       C  0.26010106  0.68840812  0.61619290    -0.13500
C2701       C  0.26021275  0.67728018  0.59248636     0.05100
C2702       C  0.23832273  0.66686129  0.58242711    -0.09500
C2703       C  0.21635030  0.66774690  0.59686542     0.05900
C2704       C  0.21588735  0.68054798  0.61964546    -0.13800
Br2705     Br  0.24483872  0.74880923  0.63034142    -0.05900
Br2706     Br  0.22184992  0.67678718  0.72682459    -0.00300
Br2707     Br  0.29126732  0.67380999  0.57527948     0.00200
Br2708     Br  0.18498875  0.68391187  0.63720976    -0.04200
Br2709     Br  0.26406529  0.76740243  0.68538362     0.00300
Br2710     Br  0.22999372  0.65166150  0.67271006    -0.03500
Br2711     Br  0.29102335  0.69908834  0.63071329    -0.04400
Br2712     Br  0.18679098  0.65044343  0.58651774    -0.00400
C2713       C  0.29804001  0.75152147  0.27533121     0.01000
C2714       C  0.30203584  0.76060441  0.29957209     0.03800
C2715       C  0.32474682  0.75633165  0.31191436    -0.12200
C2716       C  0.34581209  0.74883329  0.29852859     0.23100
C2717       C  0.34280268  0.74193953  0.27368467    -0.12800
C2718       C  0.31883932  0.74058411  0.26323625     0.04500
C2719       C  0.37119156  0.75020789  0.30988341     0.27000
C2720       C  0.38124841  0.77343914  0.31608749    -0.13500
C2721       C  0.40471668  0.77509646  0.32755177     0.05100
C2722       C  0.41970776  0.75382551  0.33069838    -0.09500
C2723       C  0.40964849  0.73052284  0.32427850     0.05900
C2724       C  0.38535005  0.72867350  0.31447270    -0.13800
Br2725     Br  0.37162746  0.73455534  0.25376471    -0.05900
Br2726     Br  0.27847283  0.78168090  0.31532729    -0.00300
Br2727     Br  0.41512061  0.80647390  0.34054308     0.00200
Br2728     Br  0.37094389  0.69650944  0.30853935    -0.04200
Br2729     Br  0.31569930  0.72021981  0.23438732     0.00300
Br2730     Br  0.32689995  0.76012597  0.34732362    -0.03500
Br2731     Br  0.36263952  0.80316524  0.30878258    -0.04400
Br2732     Br  0.42790611  0.70072009  0.33147830    -0.00400
C2733       C  0.32713967  0.91859230  0.23775522     0.01000
C2734       C  0.31591626  0.90911668  0.25952868     0.03800
C2735       C  0.30832172  0.88410374  0.26078338    -0.12200
C2736       C  0.30919299  0.86880745  0.23962463     0.23100
C2737       C  0.31984994  0.87850716  0.21766984    -0.12800
C2738       C  0.32909689  0.90296535  0.21688168     0.04500
C2739       C  0.29868521  0.84289330  0.24062108     0.27000
C2740       C  0.31362632  0.82197130  0.23630732    -0.13500
C2741       C  0.30264850  0.79840319  0.23338420     0.05100
C2742       C  0.27826615  0.79363918  0.24220114    -0.09500
C2743       C  0.26477921  0.81451621  0.25068163     0.05900
C2744       C  0.27353629  0.83881584  0.24654059    -0.13800
Br2745     Br  0.32326843  0.85823996  0.18863148    -0.05900
Br2746     Br  0.31359987  0.92910441  0.28905214    -0.00300
Br2747     Br  0.32012578  0.77612135  0.21254460     0.00200
Br2748     Br  0.25073908  0.86630429  0.24872736    -0.04200
Br2749     Br  0.34448758  0.91492236  0.18678354     0.00300
Br2750     Br  0.29987576  0.86983516  0.29252830    -0.03500
Br2751     Br  0.34932303  0.82497748  0.23591978    -0.04400
Br2752     Br  0.23635553  0.81074790  0.27152012    -0.00400
C2753       C  0.16316110  0.58229262  0.25514231     0.01000
C2754       C  0.16465696  0.59597373  0.27736833     0.03800
C2755       C  0.17611495  0.61938452  0.27766333    -0.12200
C2756       C  0.18362434  0.63082109  0.25535166     0.23100
C2757       C  0.17949696  0.61834347  0.23279929    -0.12800
C2758       C  0.17040608  0.59382952  0.23277318     0.04500
C2759       C  0.19583416  0.65578015  0.25560443     0.27000
C2760       C  0.18281258  0.67684388  0.26346729    -0.13500
C2761       C  0.19539854  0.69945368  0.26716039     0.05100
C2762       C  0.21984479  0.70314345  0.25780142    -0.09500
C2763       C  0.23177851  0.68215695  0.24745476     0.05900
C2764       C  0.22075800  0.65848141  0.24841518    -0.13800
Br2765     Br  0.18461204  0.63559861  0.20185694    -0.05900
Br2766     Br  0.15053024  0.58318584  0.30765750    -0.00300
Br2767     Br  0.17934140  0.72206193  0.28885089     0.00200
Br2768     Br  0.23996598  0.62959221  0.23984074    -0.04200
Br2769     Br  0.16585323  0.57709410  0.20170805     0.00300
Br2770     Br  0.18121844  0.63565179  0.30892098    -0.03500
Br2771     Br  0.14732834  0.67488142  0.26861881    -0.04400
Br2772     Br  0.26235026  0.68528999  0.22969536    -0.00400
C2773       C  0.25594674  0.72155847  0.29752144     0.01000
C2774       C  0.24029884  0.73083059  0.31660156     0.03800
C2775       C  0.23988203  0.71988858  0.34045110    -0.12200
C2776       C  0.25681304  0.70111152  0.34676948     0.23100
C2777       C  0.27419675  0.69353590  0.32903417    -0.12800
C2778       C  0.27308810  0.70263746  0.30445345     0.04500
C2779       C  0.25536979  0.68801569  0.37134359     0.27000
C2780       C  0.26407186  0.69910347  0.39329364    -0.13500
C2781       C  0.26146822  0.68689695  0.41641448     0.05100
C2782       C  0.25234543  0.66229897  0.41762113    -0.09500
C2783       C  0.24457309  0.65099509  0.39524008     0.05900
C2784       C  0.24564751  0.66389883  0.37253385    -0.13800
Br2785     Br  0.29970936  0.67030730  0.33894159    -0.05900
Br2786     Br  0.22097529  0.76032464  0.31179470    -0.00300
Br2787     Br  0.27080768  0.70421234  0.44608366     0.00200
Br2788     Br  0.23435606  0.64818589  0.34255851    -0.04200
Br2789     Br  0.29502444  0.68738736  0.28150762     0.00300
Br2790     Br  0.21589514  0.73056978  0.36468690    -0.03500
Br2791     Br  0.28126566  0.73026975  0.39124943    -0.04400
Br2792     Br  0.23120323  0.61809691  0.39496532    -0.00400
C2793       C  0.92984134  0.73817258  0.06910157     0.01000
C2794       C  0.90725326  0.75001197  0.07449035     0.03800
C2795       C  0.88494100  0.73986207  0.06608274    -0.12200
C2796       C  0.88548608  0.71924911  0.05036226     0.23100
C2797       C  0.90829815  0.71053405  0.04108908    -0.12800
C2798       C  0.93063444  0.72048099  0.05016677     0.04500
C2799       C  0.86213156  0.70652223  0.04421099     0.27000
C2800       C  0.85354604  0.68747395  0.05966538    -0.13500
C2801       C  0.83165477  0.67482059  0.05377995     0.05100
C2802       C  0.81840435  0.68076563  0.03179138    -0.09500
C2803       C  0.82590824  0.70177167  0.01776034     0.05900
C2804       C  0.84797103  0.71426309  0.02382373    -0.13800
Br2805     Br  0.90891992  0.68383744  0.01760785    -0.05900
Br2806     Br  0.90696437  0.78167349  0.09052743    -0.00300
Br2807     Br  0.82016980  0.64992874  0.07688215     0.00200
Br2808     Br  0.85941320  0.74184411  0.00405494    -0.04200
Br2809     Br  0.96201797  0.71045621  0.03658394     0.00300
Br2810     Br  0.85374329  0.75312618  0.07742667    -0.03500
Br2811     Br  0.87210267  0.67840586  0.08888806    -0.04400
Br2812     Br  0.80665987  0.71443919  0.99044819    -0.00400
C2813       C  0.07192882  0.57019711  0.22098898     0.01000
C2814       C  0.05380605  0.58065816  0.23690705     0.03800
C2815       C  0.03930209  0.60081960  0.22888414    -0.12200
C2816       C  0.04378952  0.61165742  0.20567165     0.23100
C2817       C  0.06131538  0.60124946  0.18956895    -0.12800
C2818       C  0.07498138  0.58036818  0.19683400     0.04500
C2819       C  0.03022741  0.63410395  0.19783563     0.27000
C2820       C  0.01187452  0.63221515  0.17945838    -0.13500
C2821       C  0.00335568  0.65363407  0.16753795     0.05100
C2822       C  0.01327813  0.67693227  0.17393273    -0.09500
C2823       C  0.02766746  0.67904846  0.19560094     0.05900
C2824       C  0.03714640  0.65755134  0.20691820    -0.13800
Br2825     Br  0.06683850  0.61596708  0.15728415    -0.05900
Br2826     Br  0.04955011  0.56956077  0.27070982    -0.00300
Br2827     Br  0.97675819  0.65069868  0.14404684     0.00200
Br2828     Br  0.06130397  0.66027593  0.23316666    -0.04200
Br2829     Br  0.09728339  0.56612098  0.17287361     0.00300
Br2830     Br  0.01319147  0.61397949  0.24948726    -0.03500
Br2831     Br  0.99984529  0.60007456  0.16944824    -0.04400
Br2832     Br  0.03452452  0.71103834  0.20963426    -0.00400
C2833       C  0.98959535  0.66948616  0.08029090     0.01000
C2834       C  0.01183484  0.65690297  0.07430750     0.03800
C2835       C  0.01118401  0.63318805  0.06325409    -0.12200
C2836       C  0.98833486  0.62137509  0.05839129     0.23100
C2837       C  0.96617053  0.63357228  0.06493006    -0.12800
C2838       C  0.96683646  0.65712150  0.07624678     0.04500
C2839       C  0.98778411  0.59555305  0.04795475     0.27000
C2840       C  0.99301122  0.59128173  0.02287584    -0.13500
C2841       C  0.99590575  0.56692382  0.01392905     0.05100
C2842       C  0.98917370  0.54599190  0.02843692    -0.09500
C2843       C  0.98234223  0.55075670  0.05363649     0.05900
C2844       C  0.98335455  0.57507514  0.06344391    -0.13800
Br2845     Br  0.93475722  0.61770948  0.05879879    -0.05900
Br2846     Br  0.04336872  0.67037054  0.08433387    -0.00300
Br2847     Br  0.01393953  0.56288632  0.98360195     0.00200
Br2848     Br  0.97954602  0.58065396  0.09863901    -0.04200
Br2849     Br  0.93643180  0.67172823  0.08740494     0.00300
Br2850     Br  0.04174731  0.61620411  0.05575856    -0.03500
Br2851     Br  0.99639597  0.61905666  0.00068708    -0.04400
Br2852     Br  0.97096336  0.52579338  0.07614483    -0.00400
C2853       C  0.91914076  0.76209176  0.16335626     0.01000
C2854       C  0.90513364  0.78379750  0.16702803     0.03800
C2855       C  0.88250095  0.78302006  0.18011291    -0.12200
C2856       C  0.87266114  0.76030449  0.18842417     0.23100
C2857       C  0.88618523  0.73837609  0.18412416    -0.12800
C2858       C  0.90950944  0.73929264  0.17218615     0.04500
C2859       C  0.84739086  0.75952447  0.20012699     0.27000
C2860       C  0.84452550  0.75538732  0.22564326    -0.13500
C2861       C  0.82059545  0.75337297  0.23615894     0.05100
C2862       C  0.79883803  0.75896854  0.22222107    -0.09500
C2863       C  0.80233664  0.76477736  0.19656346     0.05900
C2864       C  0.82613331  0.76349032  0.18558396    -0.13800
Br2865     Br  0.87218771  0.70686918  0.19354395    -0.05900
Br2866     Br  0.91661626  0.81472532  0.15400932    -0.00300
Br2867     Br  0.81827530  0.73836815  0.26835014     0.00200
Br2868     Br  0.83007697  0.76709503  0.15010649    -0.04200
Br2869     Br  0.92731820  0.70877401  0.16659633     0.00300
Br2870     Br  0.86449910  0.81314800  0.18641232    -0.03500
Br2871     Br  0.87366428  0.75250694  0.24624551    -0.04400
Br2872     Br  0.77625624  0.77566564  0.17506939    -0.00400
C2873       C  0.20200400  0.74337623  0.22338053     0.01000
C2874       C  0.19816753  0.73131874  0.20043238     0.03800
C2875       C  0.17537511  0.73350630  0.18776670    -0.12200
C2876       C  0.15457811  0.74367633  0.19966361     0.23100
C2877       C  0.15763987  0.75450825  0.22311345    -0.12800
C2878       C  0.18135768  0.75572469  0.23412245     0.04500
C2879       C  0.12940874  0.74226383  0.18800848     0.27000
C2880       C  0.11701616  0.76398032  0.18044426    -0.13500
C2881       C  0.09216299  0.76287772  0.17235752     0.05100
C2882       C  0.08059868  0.73975623  0.16820472    -0.09500
C2883       C  0.09397661  0.71790201  0.17355144     0.05900
C2884       C  0.11752228  0.71918648  0.18494492    -0.13800
Br2885     Br  0.12919511  0.76801384  0.24020594    -0.05900
Br2886     Br  0.22227402  0.70938715  0.18682062    -0.00300
Br2887     Br  0.07458928  0.79334982  0.16620526     0.00200
Br2888     Br  0.13348875  0.68923026  0.19634133    -0.04200
Br2889     Br  0.18467676  0.77598433  0.26311339     0.00300
Br2890     Br  0.17289937  0.72359665  0.15353420    -0.03500
Br2891     Br  0.13469726  0.79506319  0.17955889    -0.04400
Br2892     Br  0.08074887  0.68612117  0.16454026    -0.00400
C2893       C  0.18354630  0.82592835  0.02990444     0.01000
C2894       C  0.17551879  0.82468494  0.05474990     0.03800
C2895       C  0.15617225  0.80867752  0.06124106    -0.12200
C2896       C  0.14114938  0.79816367  0.04260879     0.23100
C2897       C  0.14816207  0.80031663  0.01764551    -0.12800
C2898       C  0.17015750  0.81287537  0.01141065     0.04500
C2899       C  0.11600817  0.78962471  0.04958189     0.27000
C2900       C  0.10932392  0.76443751  0.04951705    -0.13500
C2901       C  0.08720853  0.75689481  0.06126570     0.05100
C2902       C  0.07429289  0.77374677  0.07664673    -0.09500
C2903       C  0.08233011  0.79864363  0.07738489     0.05900
C2904       C  0.10025696  0.80688369  0.06080642    -0.13800
Br2905     Br  0.12639623  0.78847169  0.99184122    -0.05900
Br2906     Br  0.18797580  0.84699969  0.07969931    -0.00300
Br2907     Br  0.07698620  0.72285234  0.05855850     0.00200
Br2908     Br  0.10508801  0.84195041  0.05588013    -0.04200
Br2909     Br  0.17927599  0.81505514  0.97684037     0.00300
Br2910     Br  0.14895745  0.80272038  0.09585904    -0.03500
Br2911     Br  0.13120046  0.74011799  0.03532470    -0.04400
Br2912     Br  0.07440425  0.82093209  0.10383738    -0.00400
C2913       C  0.31945755  0.82157716  0.97105157     0.01000
C2914       C  0.33161924  0.82423287  0.94797107     0.03800
C2915       C  0.35341819  0.81091175  0.94310255    -0.12200
C2916       C  0.36298261  0.79440029  0.96086567     0.23100
C2917       C  0.34971677  0.78958346  0.98265875    -0.12800
C2918       C  0.32800209  0.80304549  0.98793744     0.04500
C2919       C  0.38647593  0.78136502  0.95555680     0.27000
C2920       C  0.38602640  0.76046198  0.94027265    -0.13500
C2921       C  0.40816681  0.75180535  0.92987223     0.05100
C2922       C  0.43068807  0.76443938  0.93422291    -0.09500
C2923       C  0.43162439  0.78209627  0.95325385     0.05900
C2924       C  0.40939528  0.79117747  0.96344641    -0.13800
Br2925     Br  0.36159345  0.76439624  0.00521782    -0.05900
Br2926     Br  0.31900246  0.84600508  0.92245781    -0.00300
Br2927     Br  0.40742072  0.72160801  0.91141926     0.00200
Br2928     Br  0.41018715  0.81779283  0.98705369    -0.04200
Br2929     Br  0.31139143  0.79595870  0.01891162     0.00300
Br2930     Br  0.37060964  0.81535204  0.91201555    -0.03500
Br2931     Br  0.35477014  0.74484379  0.93237152    -0.04400
Br2932     Br  0.46304873  0.79191860  0.96679882    -0.00400
C2933       C  0.28302310  0.92590368  0.06749317     0.01000
C2934       C  0.26541625  0.94248952  0.07787330     0.03800
C2935       C  0.27187969  0.95698363  0.09844334    -0.12200
C2936       C  0.29525651  0.95420883  0.10955418     0.23100
C2937       C  0.31320340  0.93878657  0.09872948    -0.12800
C2938       C  0.30723899  0.92478065  0.07769556     0.04500
C2939       C  0.30110852  0.96709834  0.13293349     0.27000
C2940       C  0.31591306  0.98844276  0.13245047    -0.13500
C2941       C  0.32599642  0.99753192  0.15459965     0.05100
C2942       C  0.32094480  0.98545143  0.17725262    -0.09500
C2943       C  0.30223131  0.96731823  0.17800419     0.05900
C2944       C  0.29303950  0.95735225  0.15577887    -0.13800
Br2945     Br  0.34607120  0.93674428  0.11300533    -0.05900
Br2946     Br  0.23147274  0.94425392  0.06619038    -0.00300
Br2947     Br  0.34527851  0.02739912  0.15380975     0.00200
Br2948     Br  0.27035076  0.92974954  0.15660033    -0.04200
Br2949     Br  0.33265319  0.90405343  0.06352775     0.00300
Br2950     Br  0.24878192  0.98080479  0.11167234    -0.03500
Br2951     Br  0.32280414  0.00453501  0.10125056    -0.04400
Br2952     Br  0.28784781  0.95760622  0.20903928    -0.00400
C2953       C  0.22346154  0.92264892  0.92971432     0.01000
C2954       C  0.19846307  0.92247626  0.92161431     0.03800
C2955       C  0.19174987  0.93514036  0.90005573    -0.12200
C2956       C  0.21025280  0.94462615  0.88436954     0.23100
C2957       C  0.23524313  0.94424371  0.89171436    -0.12800
C2958       C  0.24176615  0.93450966  0.91499004     0.04500
C2959       C  0.20320853  0.95270600  0.85928368     0.27000
C2960       C  0.19352517  0.93513004  0.84279573    -0.13500
C2961       C  0.17933532  0.94301964  0.82261492     0.05100
C2962       C  0.17916883  0.96836260  0.81583814    -0.09500
C2963       C  0.19201570  0.98568563  0.83075891     0.05900
C2964       C  0.20251745  0.97798713  0.85330746    -0.13800
Br2965     Br  0.26064141  0.95443726  0.86863021    -0.05900
Br2966     Br  0.17323959  0.90277467  0.93760176    -0.00300
Br2967     Br  0.15762591  0.91898697  0.80751135     0.00200
Br2968     Br  0.21295274  0.00214708  0.87746230    -0.04200
Br2969     Br  0.27653819  0.93361175  0.92392815     0.00300
Br2970     Br  0.15708652  0.93785131  0.89106886    -0.03500
Br2971     Br  0.19734003  0.90016224  0.84946849    -0.04400
Br2972     Br  0.19174269  0.02056376  0.82317889    -0.00400
C2973       C  0.25555265  0.83070817  0.91877883     0.01000
C2974       C  0.25259466  0.84298211  0.89558549     0.03800
C2975       C  0.25221553  0.82962433  0.87337611    -0.12200
C2976       C  0.25693877  0.80416438  0.87345915     0.23100
C2977       C  0.26043757  0.79165445  0.89614776    -0.12800
C2978       C  0.25906042  0.80467981  0.91880133     0.04500
C2979       C  0.25805010  0.79119076  0.84922771     0.27000
C2980       C  0.23730956  0.77833295  0.84042461    -0.13500
C2981       C  0.23781054  0.76757528  0.81678653     0.05100
C2982       C  0.25687556  0.77344000  0.79954920    -0.09500
C2983       C  0.27698557  0.78808022  0.80825214     0.05900
C2984       C  0.27841830  0.79495053  0.83343681    -0.13800
Br2985     Br  0.26748897  0.75670783  0.89601446    -0.05900
Br2986     Br  0.24902005  0.87823291  0.89263164    -0.00300
Br2987     Br  0.21504705  0.74100674  0.81118936     0.00200
Br2988     Br  0.30801473  0.81019867  0.84663984    -0.04200
Br2989     Br  0.26310149  0.78665952  0.94945782     0.00300
Br2990     Br  0.24455203  0.84606111  0.84231291    -0.03500
Br2991     Br  0.20773915  0.77622666  0.86047439    -0.04400
Br2992     Br  0.30224384  0.80032265  0.78659783    -0.00400
C2993       C  0.25001843  0.83181984  0.08190723     0.01000
C2994       C  0.25950243  0.84200991  0.10410796     0.03800
C2995       C  0.25803417  0.82871014  0.12648344    -0.12200
C2996       C  0.24603861  0.80565228  0.12753826     0.23100
C2997       C  0.23700225  0.79509890  0.10545349    -0.12800
C2998       C  0.24020936  0.80749737  0.08256313     0.04500
C2999       C  0.24340426  0.79290595  0.15209125     0.27000
C3000       C  0.25940677  0.77355545  0.15878986    -0.13500
C3001       C  0.25889170  0.76361671  0.18300471     0.05100
C3002       C  0.24362645  0.77387280  0.20184987    -0.09500
C3003       C  0.22729494  0.79335952  0.19452976     0.05900
C3004       C  0.22675997  0.80212426  0.16978071    -0.13800
Br3005     Br  0.21938170  0.76412226  0.10676615    -0.05900
Br3006     Br  0.27642972  0.87338386  0.10427754    -0.00300
Br3007     Br  0.27847041  0.73475122  0.18892329     0.00200
Br3008     Br  0.20353665  0.82756819  0.15966035    -0.04200
Br3009     Br  0.23155784  0.79063990  0.05238877     0.00300
Br3010     Br  0.27265789  0.84197093  0.15607897    -0.03500
Br3011     Br  0.28266591  0.76107016  0.13465646    -0.04400
Br3012     Br  0.20594241  0.80985562  0.21719906    -0.00400
C3013       C  0.33579395  0.91602395  0.00142041     0.01000
C3014       C  0.33743958  0.94106971  0.00890307     0.03800
C3015       C  0.36081868  0.95282565  0.01048572    -0.12200
C3016       C  0.38252864  0.94010933  0.00354826     0.23100
C3017       C  0.38086622  0.91576410  0.99490482    -0.12800
C3018       C  0.35787669  0.90358071  0.99433889     0.04500
C3019       C  0.40745492  0.95153767  0.00654527     0.27000
C3020       C  0.41699597  0.96737268  0.98828466    -0.13500
C3021       C  0.44083686  0.97767205  0.99100417     0.05100
C3022       C  0.45642186  0.97070790  0.01116960    -0.09500
C3023       C  0.44592748  0.95569623  0.03018401     0.05900
C3024       C  0.42179726  0.94595150  0.02756500    -0.13800
Br3025     Br  0.41056807  0.89896934  0.98413584    -0.05900
Br3026     Br  0.30821681  0.95910865  0.01862207    -0.00300
Br3027     Br  0.44932118  0.00540191  0.96989974     0.00200
Br3028     Br  0.40796910  0.92458087  0.05284031    -0.04200
Br3029     Br  0.35772856  0.86976309  0.98344869     0.00300
Br3030     Br  0.36344240  0.98606730  0.02305637    -0.03500
Br3031     Br  0.39707917  0.97508618  0.95954989    -0.04400
Br3032     Br  0.46210165  0.94978079  0.06127986    -0.00400
C3033       C  0.07866697  0.92995330  0.72028436     0.01000
C3034       C  0.06632394  0.91568968  0.73865340     0.03800
C3035       C  0.05614239  0.89255774  0.73233517    -0.12200
C3036       C  0.05442273  0.88573903  0.70732688     0.23100
C3037       C  0.06330260  0.90180880  0.68888645    -0.12800
C3038       C  0.07762208  0.92222269  0.69540184     0.04500
C3039       C  0.04635554  0.86073119  0.69989467     0.27000
C3040       C  0.06409848  0.84474482  0.68965953    -0.13500
C3041       C  0.05656356  0.82540067  0.67431848     0.05100
C3042       C  0.03126145  0.81866269  0.67330333    -0.09500
C3043       C  0.01353355  0.83299312  0.68637807     0.05900
C3044       C  0.02104195  0.85470078  0.69860519    -0.13800
Br3045     Br  0.05729555  0.89523908  0.65441307    -0.05900
Br3046     Br  0.06483554  0.92611951  0.77279123    -0.00300
Br3047     Br  0.08096544  0.81139774  0.65236546     0.00200
Br3048     Br  0.99668111  0.87726832  0.71176860    -0.04200
Br3049     Br  0.09809680  0.93651215  0.67005367     0.00300
Br3050     Br  0.04699910  0.86921204  0.75780998    -0.03500
Br3051     Br  0.09892083  0.85027558  0.69550117    -0.04400
Br3052     Br  0.97848605  0.82549227  0.68484218    -0.00400
C3053       C  0.92274872  0.57500996  0.73410946     0.01000
C3054       C  0.91622863  0.59940991  0.74085029     0.03800
C3055       C  0.92849445  0.61973062  0.73032260    -0.12200
C3056       C  0.94618987  0.61595229  0.71166687     0.23100
C3057       C  0.95441015  0.59171778  0.70645275    -0.12800
C3058       C  0.94375266  0.57138388  0.71901495     0.04500
C3059       C  0.95438944  0.63757776  0.69679113     0.27000
C3060       C  0.93710162  0.64964190  0.68126689    -0.13500
C3061       C  0.94339355  0.67191687  0.66945741     0.05100
C3062       C  0.96771720  0.68155801  0.67169211    -0.09500
C3063       C  0.98530381  0.66894142  0.68671689     0.05900
C3064       C  0.97832905  0.64752480  0.69982119    -0.13800
Br3065     Br  0.97808182  0.58607760  0.68030284    -0.05900
Br3066     Br  0.89079690  0.60571567  0.76476429    -0.00300
Br3067     Br  0.91828122  0.68857575  0.65001135     0.00200
Br3068     Br  0.00158030  0.63197386  0.72220738    -0.04200
Br3069     Br  0.95766667  0.53885473  0.71520351     0.00300
Br3070     Br  0.91979490  0.65308935  0.74005659    -0.03500
Br3071     Br  0.90446765  0.63562256  0.67613761    -0.04400
Br3072     Br  0.01977967  0.67900838  0.68793146    -0.00400
C3073       C  0.17602179  0.67528600  0.52020486     0.01000
C3074       C  0.17769023  0.69366134  0.53840795     0.03800
C3075       C  0.15591002  0.70410169  0.54781855    -0.12200
C3076       C  0.13301024  0.69836117  0.53667604     0.23100
C3077       C  0.13215255  0.68406141  0.51506156    -0.12800
C3078       C  0.15383182  0.67269420  0.50662684     0.04500
C3079       C  0.10973902  0.70507858  0.54887862     0.27000
C3080       C  0.09972442  0.68873670  0.56640782    -0.13500
C3081       C  0.07762039  0.69468008  0.57848977     0.05100
C3082       C  0.06590041  0.71767898  0.57368993    -0.09500
C3083       C  0.07500168  0.73305179  0.55426813     0.05900
C3084       C  0.09711125  0.72674758  0.54216645    -0.13800
Br3085     Br  0.10096867  0.67853197  0.49831769    -0.05900
Br3086     Br  0.20934286  0.70693371  0.54778216    -0.00300
Br3087     Br  0.06386733  0.67063270  0.60124031     0.00200
Br3088     Br  0.11070613  0.74800213  0.51675584    -0.04200
Br3089     Br  0.15334026  0.65556169  0.47550315     0.00300
Br3090     Br  0.15728207  0.72419847  0.57716356    -0.03500
Br3091     Br  0.11695119  0.65839422  0.57434663    -0.04400
Br3092     Br  0.05834957  0.76306110  0.54375557    -0.00400
C3093       C  0.81914924  0.82648742  0.52986268     0.01000
C3094       C  0.82785146  0.82657632  0.55452232     0.03800
C3095       C  0.84967359  0.81406914  0.56058078    -0.12200
C3096       C  0.86502947  0.80486485  0.54164506     0.23100
C3097       C  0.85680532  0.80496669  0.51699985    -0.12800
C3098       C  0.83313223  0.81420134  0.51138635     0.04500
C3099       C  0.89050992  0.79745637  0.54796566     0.27000
C3100       C  0.90631609  0.81535086  0.55832393    -0.13500
C3101       C  0.92589093  0.80795583  0.57341861     0.05100
C3102       C  0.93289274  0.78283727  0.57398009    -0.09500
C3103       C  0.91905088  0.76507078  0.56055459     0.05900
C3104       C  0.89725785  0.77232356  0.54833352    -0.13800
Br3105     Br  0.87886245  0.79482717  0.49069500    -0.05900
Br3106     Br  0.81192622  0.84558913  0.58012797    -0.00300
Br3107     Br  0.93999105  0.83225753  0.59555790     0.00200
Br3108     Br  0.87563507  0.74751389  0.53432548    -0.04200
Br3109     Br  0.82177055  0.81189626  0.47772753     0.00300
Br3110     Br  0.85927547  0.81133240  0.59495516    -0.03500
Br3111     Br  0.89968316  0.85009656  0.55425158    -0.04400
Br3112     Br  0.92673476  0.73011469  0.56262823    -0.00400
C3113       C  0.20253664  0.75725460  0.72588587     0.01000
C3114       C  0.19480495  0.77596862  0.70883561     0.03800
C3115       C  0.17045592  0.77593671  0.69877225    -0.12200
C3116       C  0.15340928  0.75718942  0.70497155     0.23100
C3117       C  0.16064775  0.73881499  0.72193090    -0.12800
C3118       C  0.18442795  0.73940556  0.73293590     0.04500
C3119       C  0.12856002  0.75576556  0.69231276     0.27000
C3120       C  0.10638553  0.76205791  0.70468245    -0.13500
C3121       C  0.08302326  0.75936388  0.69274183     0.05100
C3122       C  0.08169985  0.75178019  0.66762191    -0.09500
C3123       C  0.10427168  0.74609161  0.65530536     0.05900
C3124       C  0.12725731  0.74782443  0.66761569    -0.13800
Br3125     Br  0.13803833  0.71207257  0.72945592    -0.05900
Br3126     Br  0.21617598  0.80225901  0.69840077    -0.00300
Br3127     Br  0.05325853  0.76727967  0.71076387     0.00200
Br3128     Br  0.15748591  0.74004536  0.65021545    -0.04200
Br3129     Br  0.19029824  0.71713015  0.75997260     0.00300
Br3130     Br  0.16028303  0.80111268  0.67530376    -0.03500
Br3131     Br  0.10843851  0.77593323  0.73748731    -0.04400
Br3132     Br  0.10468467  0.73519735  0.62140293    -0.00400
C3133       C  0.99884851  0.66943191  0.57908428     0.01000
C3134       C  0.00564468  0.66856451  0.55371936     0.03800
C3135       C  0.00549364  0.64576220  0.54072972    -0.12200
C3136       C  0.99833684  0.62368583  0.55279101     0.23100
C3137       C  0.99102371  0.62464325  0.57767396    -0.12800
C3138       C  0.99065913  0.64720718  0.59047255     0.04500
C3139       C  0.00002833  0.59893557  0.54046124     0.27000
C3140       C  0.98100339  0.59038504  0.52490683    -0.13500
C3141       C  0.98187912  0.56619224  0.51518460     0.05100
C3142       C  0.00036257  0.54893647  0.52274983    -0.09500
C3143       C  0.01939029  0.55788116  0.53876950     0.05900
C3144       C  0.01943666  0.58277118  0.54688028    -0.13800
Br3145     Br  0.98297759  0.59432675  0.59486164    -0.05900
Br3146     Br  0.01591998  0.69818092  0.53663941    -0.00300
Br3147     Br  0.95896681  0.55843315  0.48923453     0.00200
Br3148     Br  0.04525569  0.59498760  0.56860676    -0.04200
Br3149     Br  0.97685470  0.64681275  0.62311586     0.00300
Br3150     Br  0.01643000  0.64433920  0.50681036    -0.03500
Br3151     Br  0.95297442  0.61153090  0.51778399    -0.04400
Br3152     Br  0.04546122  0.53726970  0.55111015    -0.00400
C3153       C  0.91751165  0.74878025  0.66605203     0.01000
C3154       C  0.91697506  0.74149734  0.69123527     0.03800
C3155       C  0.89417891  0.74025157  0.70415176    -0.12200
C3156       C  0.87178521  0.74715841  0.69237228     0.23100
C3157       C  0.87225403  0.75461081  0.66746175    -0.12800
C3158       C  0.89466834  0.75459405  0.65415314     0.04500
C3159       C  0.84748541  0.74686988  0.70571889     0.27000
C3160       C  0.82985364  0.72828348  0.70077898    -0.13500
C3161       C  0.80563348  0.72977952  0.71068288     0.05100
C3162       C  0.79913127  0.74905241  0.72723014    -0.09500
C3163       C  0.81760969  0.76695964  0.73300260     0.05900
C3164       C  0.84110790  0.76640335  0.72154638    -0.13800
Br3165     Br  0.84176843  0.76527275  0.65168263    -0.05900
Br3166     Br  0.94705274  0.73123857  0.70772766    -0.00300
Br3167     Br  0.78221058  0.70484007  0.70135235     0.00200
Br3168     Br  0.86504042  0.79222220  0.72798473    -0.04200
Br3169     Br  0.89296752  0.76232261  0.61943614     0.00300
Br3170     Br  0.89356394  0.72855107  0.73786010    -0.03500
Br3171     Br  0.83919403  0.70068310  0.68016716    -0.04400
Br3172     Br  0.81371935  0.78874744  0.76081357    -0.00400
C3173       C  0.83105033  0.91980942  0.49744493     0.01000
C3174       C  0.83193028  0.94460927  0.48869763     0.03800
C3175       C  0.85508160  0.95702806  0.48585483    -0.12200
C3176       C  0.87753576  0.94541418  0.49298607     0.23100
C3177       C  0.87645876  0.92164487  0.50349401    -0.12800
C3178       C  0.85369280  0.90885436  0.50519253     0.04500
C3179       C  0.90242029  0.95800740  0.49056596     0.27000
C3180       C  0.92002378  0.94965290  0.47319625    -0.13500
C3181       C  0.94491766  0.95822479  0.47391097     0.05100
C3182       C  0.95225711  0.97728785  0.49042985    -0.09500
C3183       C  0.93364411  0.98678960  0.50648079     0.05900
C3184       C  0.90974595  0.97608373  0.50769959    -0.13800
Br3185     Br  0.90659461  0.90696093  0.51637364    -0.05900
Br3186     Br  0.80172665  0.96153367  0.47982320    -0.00300
Br3187     Br  0.96837184  0.94206789  0.45302215     0.00200
Br3188     Br  0.88760448  0.98466457  0.53440743    -0.04200
Br3189     Br  0.85399430  0.87660171  0.51966119     0.00300
Br3190     Br  0.85625896  0.98985861  0.47181560    -0.03500
Br3191     Br  0.91006237  0.92524031  0.44911421    -0.04400
Br3192     Br  0.93931828  0.01552688  0.52633068    -0.00400
C3193       C  0.16812184  0.08648898  0.51064124     0.01000
C3194       C  0.15836539  0.07644767  0.48841375     0.03800
C3195       C  0.13496882  0.06472599  0.48823672    -0.12200
C3196       C  0.12140534  0.06192176  0.51034461     0.23100
C3197       C  0.13081979  0.07224284  0.53240178    -0.12800
C3198       C  0.15330118  0.08564353  0.53223519     0.04500
C3199       C  0.09624310  0.05017980  0.50988644     0.27000
C3200       C  0.07494173  0.06462380  0.51343535    -0.13500
C3201       C  0.05143632  0.05330107  0.51533092     0.05100
C3202       C  0.04776181  0.02825313  0.50775961    -0.09500
C3203       C  0.06949075  0.01481565  0.50127710     0.05900
C3204       C  0.09338620  0.02482614  0.50512143    -0.13800
Br3205     Br  0.11230534  0.06865210  0.56277062    -0.05900
Br3206     Br  0.17478806  0.08229368  0.45714787    -0.00300
Br3207     Br  0.02714751  0.07259849  0.53200342     0.00200
Br3208     Br  0.12236848  0.00392365  0.50343727    -0.04200
Br3209     Br  0.16181170  0.10506749  0.56082170     0.00300
Br3210     Br  0.12044798  0.05420603  0.45726441    -0.03500
Br3211     Br  0.07799822  0.10030650  0.51513718    -0.04400
Br3212     Br  0.06761560  0.98468668  0.48283961    -0.00400
C3213       C  0.02566467  0.99309946  0.54584535     0.01000
C3214       C  0.01810573  0.01075913  0.56379748     0.03800
C3215       C  0.02934227  0.01193012  0.58735673    -0.12200
C3216       C  0.04542530  0.99311496  0.59523426     0.23100
C3217       C  0.05126286  0.97389410  0.57873809    -0.12800
C3218       C  0.04276429  0.97459369  0.55392954     0.04500
C3219       C  0.05795169  0.99442184  0.61997281     0.27000
C3220       C  0.08371276  0.99789330  0.62088454    -0.13500
C3221       C  0.09659556  0.99448409  0.64321343     0.05100
C3222       C  0.08359957  0.99438692  0.66625168    -0.09500
C3223       C  0.05737776  0.99195152  0.66540040     0.05900
C3224       C  0.04495039  0.99020692  0.64227180    -0.13800
Br3225     Br  0.07223613  0.94704923  0.59025470    -0.05900
Br3226     Br  0.99022330  0.03189280  0.55826049    -0.00300
Br3227     Br  0.13117666  0.98525603  0.63999626     0.00200
Br3228     Br  0.01060901  0.98025474  0.64083817    -0.04200
Br3229     Br  0.05681752  0.95054791  0.53232360     0.00300
Br3230     Br  0.02377091  0.04019998  0.60843147    -0.03500
Br3231     Br  0.10166544  0.00643899  0.59105771    -0.04400
Br3232     Br  0.03848775  0.98794583  0.69541763    -0.00400
C3233       C  0.01339509  0.16966527  0.41696165     0.01000
C3234       C  0.99087453  0.15705746  0.42160835     0.03800
C3235       C  0.99104614  0.13203879  0.42905390    -0.12200
C3236       C  0.01354274  0.12043427  0.43579311     0.23100
C3237       C  0.03603997  0.13337190  0.43224160    -0.12800
C3238       C  0.03595235  0.15691370  0.42080027     0.04500
C3239       C  0.01309089  0.09542397  0.44787862     0.27000
C3240       C  0.00050945  0.09225228  0.47044016    -0.13500
C3241       C  0.99679773  0.06841487  0.48022778     0.05100
C3242       C  0.01018416  0.04786151  0.47097430    -0.09500
C3243       C  0.02547528  0.05190977  0.44994346     0.05900
C3244       C  0.02466143  0.07471668  0.43707383    -0.13800
Br3245     Br  0.06687059  0.11943210  0.44397816    -0.05900
Br3246     Br  0.95947398  0.17337364  0.41698529    -0.00300
Br3247     Br  0.97324028  0.06509855  0.50662267     0.00200
Br3248     Br  0.03854498  0.07713821  0.40418084    -0.04200
Br3249     Br  0.06661044  0.17083507  0.40901525     0.00300
Br3250     Br  0.96042851  0.11331429  0.42921418    -0.03500
Br3251     Br  0.98896939  0.12078916  0.48858856    -0.04400
Br3252     Br  0.04990741  0.02847915  0.43962494    -0.00400
C3253       C  0.99247568  0.95310310  0.52199893     0.01000
C3254       C  0.97854677  0.94733922  0.54351752     0.03800
C3255       C  0.97649767  0.92264883  0.55216214    -0.12200
C3256       C  0.99055591  0.90354264  0.54141054     0.23100
C3257       C  0.00443777  0.90887618  0.52004483    -0.12800
C3258       C  0.00464794  0.93306952  0.50994243     0.04500
C3259       C  0.99300985  0.87881371  0.55416175     0.27000
C3260       C  0.00619438  0.87707540  0.57665557    -0.13500
C3261       C  0.00824549  0.85426409  0.58919708     0.05100
C3262       C  0.99872401  0.83224273  0.57882229    -0.09500
C3263       C  0.98767489  0.83362443  0.55502732     0.05900
C3264       C  0.98327209  0.85693868  0.54369327    -0.13800
Br3265     Br  0.02444464  0.88310079  0.50529265    -0.05900
Br3266     Br  0.96385290  0.97271796  0.56314800    -0.00300
Br3267     Br  0.02560357  0.85332381  0.62015273     0.00200
Br3268     Br  0.96244944  0.85919855  0.51473217    -0.04200
Br3269     Br  0.02437099  0.93819033  0.48089178     0.00300
Br3270     Br  0.95430414  0.91464146  0.57900347    -0.03500
Br3271     Br  0.02164834  0.90610342  0.59048459    -0.04400
Br3272     Br  0.97862128  0.80397924  0.53761249    -0.00400
C3273       C  0.97447933  0.17854853  0.33025031     0.01000
C3274       C  0.99130756  0.16230833  0.31856195     0.03800
C3275       C  0.98242832  0.14153896  0.30573462    -0.12200
C3276       C  0.95677659  0.13766488  0.30375616     0.23100
C3277       C  0.94001978  0.15420078  0.31453554    -0.12800
C3278       C  0.94887167  0.17273554  0.33004204     0.04500
C3279       C  0.94695589  0.11409418  0.29476520     0.27000
C3280       C  0.94211226  0.11083257  0.26946052    -0.13500
C3281       C  0.92959314  0.08954897  0.26152698     0.05100
C3282       C  0.91958343  0.07306317  0.27920923    -0.09500
C3283       C  0.92181175  0.07837276  0.30465852     0.05900
C3284       C  0.93782380  0.09712840  0.31231648    -0.13800
Br3285     Br  0.90468258  0.15012749  0.30953911    -0.05900
Br3286     Br  0.02630420  0.16496206  0.32467832    -0.00300
Br3287     Br  0.92270069  0.08534359  0.22671842     0.00200
Br3288     Br  0.94560744  0.10084176  0.34710287    -0.04200
Br3289     Br  0.92600825  0.18507696  0.35432650     0.00300
Br3290     Br  0.00510086  0.11742741  0.29236266    -0.03500
Br3291     Br  0.95006699  0.13685576  0.24630463    -0.04400
Br3292     Br  0.90014813  0.06376157  0.32898392    -0.00400
C3293       C  0.78170465  0.07229697  0.06671794     0.01000
C3294       C  0.80171059  0.08112166  0.08123496     0.03800
C3295       C  0.80631264  0.07070958  0.10439029    -0.12200
C3296       C  0.79324144  0.04954824  0.11204737     0.23100
C3297       C  0.77544829  0.03873788  0.09651769    -0.12800
C3298       C  0.76955934  0.05000185  0.07376984     0.04500
C3299       C  0.80299860  0.03590826  0.13341976     0.27000
C3300       C  0.82575156  0.02398270  0.13023732    -0.13500
C3301       C  0.84057840  0.01898392  0.15075708     0.05100
C3302       C  0.83122411  0.02270421  0.17487575    -0.09500
C3303       C  0.80638377  0.03067801  0.17794151     0.05900
C3304       C  0.79269522  0.03849837  0.15712695    -0.13800
Br3305     Br  0.75971716  0.00821006  0.10649461    -0.05900
Br3306     Br  0.82404726  0.10680268  0.06974354    -0.00300
Br3307     Br  0.87379190  0.00811787  0.14453368     0.00200
Br3308     Br  0.76048220  0.05350213  0.16084695    -0.04200
Br3309     Br  0.74584168  0.03352489  0.05259159     0.00300
Br3310     Br  0.83124449  0.08530402  0.12548944    -0.03500
Br3311     Br  0.83723340  0.01648325  0.09721427    -0.04400
Br3312     Br  0.79135881  0.03225752  0.21026482    -0.00400
C3313       C  0.77784369  0.92038866  0.42777376     0.01000
C3314       C  0.80318959  0.92309695  0.42184749     0.03800
C3315       C  0.81012377  0.93675308  0.40100641    -0.12200
C3316       C  0.79203903  0.94417569  0.38366443     0.23100
C3317       C  0.76678573  0.93984850  0.38837570    -0.12800
C3318       C  0.75960522  0.92834565  0.41062010     0.04500
C3319       C  0.80032098  0.95237728  0.35896223     0.27000
C3320       C  0.79974276  0.97747791  0.35223957    -0.13500
C3321       C  0.81195526  0.98541979  0.33062368     0.05100
C3322       C  0.82652935  0.96855020  0.31685099    -0.09500
C3323       C  0.82746959  0.94348597  0.32450987     0.05900
C3324       C  0.81239050  0.93515955  0.34381672    -0.13800
Br3325     Br  0.74238677  0.94779709  0.36338866    -0.05900
Br3326     Br  0.82874746  0.90483589  0.43901062    -0.00300
Br3327     Br  0.81189251  0.02018967  0.32286313     0.00200
Br3328     Br  0.80984386  0.90013309  0.35098929    -0.04200
Br3329     Br  0.72522040  0.91933088  0.41501501     0.00300
Br3330     Br  0.84482720  0.94361805  0.39541303    -0.03500
Br3331     Br  0.78382565  0.00109488  0.37370659    -0.04400
Br3332     Br  0.85239708  0.92098483  0.31296604    -0.00400
C3333       C  0.92768233  0.92765854  0.22471397     0.01000
C3334       C  0.95338040  0.92752080  0.23103775     0.03800
C3335       C  0.96788382  0.90634943  0.22622544    -0.12200
C3336       C  0.95661244  0.88488056  0.21703123     0.23100
C3337       C  0.93089446  0.88398722  0.21396527    -0.12800
C3338       C  0.91693382  0.90566166  0.21484555     0.04500
C3339       C  0.97084235  0.86609580  0.20332694     0.27000
C3340       C  0.97123324  0.86887876  0.17752761    -0.13500
C3341       C  0.97295208  0.84802101  0.16235847     0.05100
C3342       C  0.97989601  0.82467166  0.17278117    -0.09500
C3343       C  0.98187525  0.82260148  0.19896886     0.05900
C3344       C  0.97622637  0.84304633  0.21409024    -0.13800
Br3345     Br  0.91510890  0.85261405  0.20758109    -0.05900
Br3346     Br  0.96980740  0.95629014  0.24446637    -0.00300
Br3347     Br  0.96255705  0.85268178  0.12815761     0.00200
Br3348     Br  0.97337489  0.83927918  0.24946736    -0.04200
Br3349     Br  0.88369330  0.90343968  0.20085980     0.00300
Br3350     Br  0.00315641  0.90634840  0.23198491    -0.03500
Br3351     Br  0.96659236  0.90150891  0.16316143    -0.04400
Br3352     Br  0.98933196  0.79147376  0.21497288    -0.00400
C3353       C  0.83549170  0.91729727  0.25365334     0.01000
C3354       C  0.84911661  0.89467592  0.25495967     0.03800
C3355       C  0.83702189  0.87199383  0.25169010    -0.12200
C3356       C  0.81109440  0.87070344  0.25250608     0.23100
C3357       C  0.79712339  0.89270788  0.25369151    -0.12800
C3358       C  0.80915931  0.91596748  0.25290104     0.04500
C3359       C  0.79899898  0.84598340  0.25389396     0.27000
C3360       C  0.78526235  0.83689906  0.23384396    -0.13500
C3361       C  0.77280821  0.81420674  0.23594316     0.05100
C3362       C  0.77794727  0.79771532  0.25578229    -0.09500
C3363       C  0.79328236  0.80651109  0.27535335     0.05900
C3364       C  0.80211564  0.83107979  0.27509422    -0.13800
Br3365     Br  0.76151041  0.89074009  0.25709669    -0.05900
Br3366     Br  0.88387345  0.89273280  0.26408095    -0.00300
Br3367     Br  0.74508188  0.80882211  0.21426873     0.00200
Br3368     Br  0.81887999  0.84451865  0.30379838    -0.04200
Br3369     Br  0.78904065  0.94550317  0.25273027     0.00300
Br3370     Br  0.85610849  0.84234081  0.24583864    -0.03500
Br3371     Br  0.78419269  0.85504660  0.20306052    -0.04400
Br3372     Br  0.80360495  0.78624175  0.30257385    -0.00400
C3373       C  0.83069280  0.07997564  0.23844272     0.01000
C3374       C  0.82979235  0.09301436  0.21562884     0.03800
C3375       C  0.81697975  0.11581416  0.21349090    -0.12200
C3376       C  0.80777983  0.12780319  0.23475407     0.23100
C3377       C  0.80989472  0.11550640  0.25782112    -0.12800
C3378       C  0.82048032  0.09158005  0.25950562     0.04500
C3379       C  0.79726657  0.15373974  0.23341807     0.27000
C3380       C  0.81287178  0.17436456  0.22936846    -0.13500
C3381       C  0.80344969  0.19887621  0.23067970     0.05100
C3382       C  0.77833091  0.20334037  0.23770530    -0.09500
C3383       C  0.76326512  0.18235302  0.24267332     0.05900
C3384       C  0.77207901  0.15807116  0.23873406    -0.13800
Br3385     Br  0.79975822  0.13211219  0.28766212    -0.05900
Br3386     Br  0.84813648  0.08127762  0.18762384    -0.00300
Br3387     Br  0.82633563  0.22537427  0.22398433     0.00200
Br3388     Br  0.74953529  0.13045339  0.24101993    -0.04200
Br3389     Br  0.82379250  0.07631073  0.29154371     0.00300
Br3390     Br  0.81207329  0.13066867  0.18131287    -0.03500
Br3391     Br  0.84772271  0.16898687  0.22286301    -0.04400
Br3392     Br  0.73246407  0.18613714  0.26031916    -0.00400
C3393       C  0.91925765  0.00657042  0.33009219     0.01000
C3394       C  0.94321086  0.01734512  0.33099633     0.03800
C3395       C  0.95502615  0.02137430  0.35406035    -0.12200
C3396       C  0.94442662  0.01208840  0.37609061     0.23100
C3397       C  0.92158987  0.99951678  0.37495776    -0.12800
C3398       C  0.90883105  0.99741188  0.35234254     0.04500
C3399       C  0.95736464  0.01416688  0.40051276     0.27000
C3400       C  0.97766735  0.99884882  0.40601781    -0.13500
C3401       C  0.98743671  0.99789854  0.43025822     0.05100
C3402       C  0.97562265  0.01032579  0.45020537    -0.09500
C3403       C  0.95472166  0.02535712  0.44427161     0.05900
C3404       C  0.94693860  0.02852681  0.41945392    -0.13800
Br3405     Br  0.90781171  0.98470394  0.40462804    -0.05900
Br3406     Br  0.96012627  0.02660799  0.30095866    -0.00300
Br3407     Br  0.01653528  0.97816460  0.43535599     0.00200
Br3408     Br  0.92086416  0.05175501  0.41108260    -0.04200
Br3409     Br  0.87775371  0.98020177  0.35231678     0.00300
Br3410     Br  0.98524099  0.04043080  0.35570065    -0.03500
Br3411     Br  0.99121656  0.97791896  0.38041541    -0.04400
Br3412     Br  0.93385166  0.03954043  0.46890893    -0.00400
C3413       C  0.07436394  0.27284019  0.92505290     0.01000
C3414       C  0.07504937  0.29039447  0.94417751     0.03800
C3415       C  0.09772107  0.29676896  0.95524027    -0.12200
C3416       C  0.11994306  0.28683996  0.94588767     0.23100
C3417       C  0.11921698  0.26788920  0.92832908    -0.12800
C3418       C  0.09624805  0.25940862  0.91973071     0.04500
C3419       C  0.14344892  0.29943500  0.95136887     0.27000
C3420       C  0.14706555  0.32290649  0.94109784    -0.13500
C3421       C  0.16545561  0.33833617  0.95058288     0.05100
C3422       C  0.18345529  0.32865547  0.96756895    -0.09500
C3423       C  0.18182851  0.30331029  0.97473008     0.05900
C3424       C  0.16101374  0.28926703  0.96769167    -0.13800
Br3425     Br  0.14955216  0.25555747  0.91393683    -0.05900
Br3426     Br  0.04538633  0.30555878  0.95568719    -0.00300
Br3427     Br  0.16194856  0.37307969  0.94182107     0.00200
Br3428     Br  0.15610480  0.25631973  0.98074396    -0.04200
Br3429     Br  0.09544344  0.22794459  0.90355965     0.00300
Br3430     Br  0.09871594  0.32086419  0.98157752    -0.03500
Br3431     Br  0.12570863  0.33422955  0.91444570    -0.04400
Br3432     Br  0.20709719  0.28697228  0.99440328    -0.00400
C3433       C  0.07923057  0.06746941  0.78078849     0.01000
C3434       C  0.08019366  0.07377068  0.80620998     0.03800
C3435       C  0.06655153  0.09382467  0.81493608    -0.12200
C3436       C  0.05605713  0.11057609  0.79802256     0.23100
C3437       C  0.05554874  0.10510545  0.77260865    -0.12800
C3438       C  0.06604810  0.08292898  0.76408408     0.04500
C3439       C  0.04834049  0.13505837  0.80694059     0.27000
C3440       C  0.02311125  0.14128222  0.80788482    -0.13500
C3441       C  0.01593370  0.16422913  0.81746905     0.05100
C3442       C  0.03365684  0.17967167  0.82901875    -0.09500
C3443       C  0.05893335  0.17253102  0.82916729     0.05900
C3444       C  0.06638102  0.15135506  0.81635715    -0.13800
Br3445     Br  0.04222651  0.12897133  0.74940093    -0.05900
Br3446     Br  0.10284915  0.05835995  0.82922025    -0.00300
Br3447     Br  0.98129870  0.17251339  0.81718304     0.00200
Br3448     Br  0.10136336  0.14401147  0.81275912    -0.04200
Br3449     Br  0.06517881  0.07616986  0.72898908     0.00300
Br3450     Br  0.06368764  0.09928259  0.85017547    -0.03500
Br3451     Br  0.99830472  0.11737618  0.79817339    -0.04400
Br3452     Br  0.08353197  0.18973443  0.84851099    -0.00400
C3453       C  0.97237903  0.32394703  0.82973841     0.01000
C3454       C  0.97287257  0.32314304  0.80347525     0.03800
C3455       C  0.96644123  0.34427785  0.78937206    -0.12200
C3456       C  0.96045034  0.36660854  0.80123611     0.23100
C3457       C  0.96063479  0.36775353  0.82717634    -0.12800
C3458       C  0.96460532  0.34629928  0.84133750     0.04500
C3459       C  0.94682679  0.38645703  0.78785737     0.27000
C3460       C  0.95858280  0.40853249  0.78059693    -0.13500
C3461       C  0.94430483  0.42960475  0.77440554     0.05100
C3462       C  0.91799449  0.42836962  0.77466533    -0.09500
C3463       C  0.90644010  0.40573745  0.78206486     0.05900
C3464       C  0.92088499  0.38496390  0.78765227    -0.13800
Br3465     Br  0.95272318  0.39870348  0.84322448    -0.05900
Br3466     Br  0.97795783  0.29224193  0.78645627    -0.00300
Br3467     Br  0.96120018  0.46068184  0.76914980     0.00200
Br3468     Br  0.90500673  0.35420691  0.79659324    -0.04200
Br3469     Br  0.95463435  0.34783830  0.87569145     0.00300
Br3470     Br  0.96339233  0.34237625  0.75384928    -0.03500
Br3471     Br  0.99427916  0.40969328  0.77967661    -0.04400
Br3472     Br  0.87099284  0.40201837  0.78745961    -0.00400
C3473       C  0.92871463  0.21952986  0.92080059     0.01000
C3474       C  0.92218807  0.19438946  0.92343483     0.03800
C3475       C  0.90185736  0.18780530  0.93809411    -0.12200
C3476       C  0.88489641  0.20609838  0.94566837     0.23100
C3477       C  0.89018270  0.23123431  0.94134726    -0.12800
C3478       C  0.91271439  0.23802331  0.93012370     0.04500
C3479       C  0.85985855  0.19817595  0.95358055     0.27000
C3480       C  0.84474909  0.18609833  0.93621528    -0.13500
C3481       C  0.82444745  0.17213364  0.94427321     0.05100
C3482       C  0.81651932  0.17348089  0.96929201    -0.09500
C3483       C  0.82974908  0.18891650  0.98593101     0.05900
C3484       C  0.85218068  0.20002539  0.97837639    -0.13800
Br3485     Br  0.86553657  0.25608125  0.94843053    -0.05900
Br3486     Br  0.93846537  0.16883288  0.90467158    -0.00300
Br3487     Br  0.80969476  0.14988855  0.92062661     0.00200
Br3488     Br  0.87337482  0.21608328  0.00227200    -0.04200
Br3489     Br  0.91958815  0.27267184  0.92437571     0.00300
Br3490     Br  0.89623306  0.15340354  0.94626609    -0.03500
Br3491     Br  0.85309236  0.18740051  0.90133299    -0.04400
Br3492     Br  0.81896545  0.19335533  0.01969365    -0.00400
C3493       C  0.08204538  0.25019682  0.83072771     0.01000
C3494       C  0.08471601  0.23737161  0.80808662     0.03800
C3495       C  0.10844395  0.23477673  0.79705666    -0.12200
C3496       C  0.12944620  0.24629887  0.80763468     0.23100
C3497       C  0.12633832  0.26067975  0.82897948    -0.12800
C3498       C  0.10280045  0.26336379  0.83987225     0.04500
C3499       C  0.15464623  0.24492525  0.79586494     0.27000
C3500       C  0.17228743  0.22760153  0.80417110    -0.13500
C3501       C  0.19669716  0.22748643  0.79442646     0.05100
C3502       C  0.20418832  0.24534252  0.77643489    -0.09500
C3503       C  0.18603625  0.26266317  0.76829818     0.05900
C3504       C  0.16168254  0.26246103  0.77794093    -0.13800
Br3505     Br  0.15478110  0.27646243  0.84356919    -0.05900
Br3506     Br  0.05594648  0.22442614  0.79142208    -0.00300
Br3507     Br  0.21843842  0.20191767  0.80599068     0.00200
Br3508     Br  0.13747634  0.28608670  0.76620471    -0.04200
Br3509     Br  0.09875905  0.28871125  0.86428788     0.00300
Br3510     Br  0.11244258  0.21458056  0.76810816    -0.03500
Br3511     Br  0.16271617  0.20423656  0.82956554    -0.04400
Br3512     Br  0.19261674  0.28410600  0.74059162    -0.00400
C3513       C  0.00052070  0.33063121  0.92033628     0.01000
C3514       C  0.00563055  0.35337348  0.90778734     0.03800
C3515       C  0.99972045  0.37596457  0.91895172    -0.12200
C3516       C  0.99658894  0.37709085  0.94467050     0.23100
C3517       C  0.99351834  0.35484025  0.95806239    -0.12800
C3518       C  0.99237686  0.33200036  0.94540825     0.04500
C3519       C  0.99892130  0.40162387  0.95711544     0.27000
C3520       C  0.02083788  0.41556398  0.95429142    -0.13500
C3521       C  0.02176051  0.44048530  0.96205023     0.05100
C3522       C  0.00230102  0.45061658  0.97680419    -0.09500
C3523       C  0.98208343  0.43467665  0.98237017     0.05900
C3524       C  0.97908025  0.41190338  0.97026621    -0.13800
Br3525     Br  0.99277716  0.35520945  0.99378294    -0.05900
Br3526     Br  0.02191825  0.35575247  0.87585714    -0.00300
Br3527     Br  0.04921857  0.45917038  0.94965771     0.00200
Br3528     Br  0.94706887  0.39586050  0.97034100    -0.04200
Br3529     Br  0.98054140  0.30333921  0.96338459     0.00300
Br3530     Br  0.99649315  0.40573292  0.89913400    -0.03500
Br3531     Br  0.04942131  0.40058808  0.93843842    -0.04400
Br3532     Br  0.96052470  0.44102230  0.00970821    -0.00400
C3533       C  0.92065187  0.25126635  0.83045438     0.01000
C3534       C  0.90670949  0.27296895  0.82580473     0.03800
C3535       C  0.88376737  0.27183345  0.81332019    -0.12200
C3536       C  0.87302741  0.24883761  0.80771474     0.23100
C3537       C  0.88572758  0.22698254  0.81412367    -0.12800
C3538       C  0.90968713  0.22817930  0.82472162     0.04500
C3539       C  0.84738763  0.24805764  0.79724678     0.27000
C3540       C  0.82709553  0.25386783  0.81236268    -0.13500
C3541       C  0.80334503  0.25754923  0.80196516     0.05100
C3542       C  0.79857133  0.25166498  0.77668769    -0.09500
C3543       C  0.81905600  0.24334200  0.76233172     0.05900
C3544       C  0.84336260  0.24306576  0.77210749    -0.13800
Br3545     Br  0.86914508  0.19556150  0.81064842    -0.05900
Br3546     Br  0.91685759  0.30407819  0.83903798    -0.00300
Br3547     Br  0.77911961  0.27194244  0.82329405     0.00200
Br3548     Br  0.87129776  0.23488593  0.75134723    -0.04200
Br3549     Br  0.92567804  0.19794741  0.83448754     0.00300
Br3550     Br  0.86592952  0.30179071  0.80510292    -0.03500
Br3551     Br  0.83214783  0.25602380  0.84776342    -0.04400
Br3552     Br  0.81411387  0.22787594  0.73081431    -0.00400
C3553       C  0.83276959  0.08052600  0.00886164     0.01000
C3554       C  0.85617930  0.09261032  0.01111338     0.03800
C3555       C  0.87836291  0.07872133  0.01319218    -0.12200
C3556       C  0.87812413  0.05279374  0.01064363     0.23100
C3557       C  0.85509486  0.04068110  0.00789641    -0.12800
C3558       C  0.83261719  0.05419273  0.00850766     0.04500
C3559       C  0.90213584  0.03866175  0.00888652     0.27000
C3560       C  0.91630410  0.03975795  0.98700818    -0.13500
C3561       C  0.93744933  0.02473737  0.98455630     0.05100
C3562       C  0.94941352  0.01562784  0.00582602    -0.09500
C3563       C  0.93231705  0.00844868  0.02474699     0.05900
C3564       C  0.90960908  0.02154775  0.02730030    -0.13800
Br3565     Br  0.85432271  0.00551817  0.00158634    -0.05900
Br3566     Br  0.85917995  0.12822581  0.00951498    -0.00300
Br3567     Br  0.93320514  0.99987762  0.95974346     0.00200
Br3568     Br  0.88921383  0.01625579  0.05603878    -0.04200
Br3569     Br  0.80196186  0.03571362  0.00991770     0.00300
Br3570     Br  0.90955013  0.09528627  0.01908990    -0.03500
Br3571     Br  0.90464467  0.05783368  0.95859369    -0.04400
Br3572     Br  0.93556619  0.97798456  0.04301736    -0.00400
C3573       C  0.02581464  0.00569965  0.95257856     0.01000
C3574       C  0.04312427  0.02382065  0.94441847     0.03800
C3575       C  0.05352344  0.02287241  0.92026666    -0.12200
C3576       C  0.04781384  0.00335304  0.90392917     0.23100
C3577       C  0.03076869  0.98524030  0.91184317    -0.12800
C3578       C  0.01901223  0.98707545  0.93526095     0.04500
C3579       C  0.06050528  0.00151373  0.87894359     0.27000
C3580       C  0.04817904  0.00783239  0.85665860    -0.13500
C3581       C  0.06047559  0.00604676  0.83341322     0.05100
C3582       C  0.08616920  0.00030897  0.83218017    -0.09500
C3583       C  0.09853949  0.99491931  0.85489926     0.05900
C3584       C  0.08545679  0.99401610  0.87759705    -0.13800
Br3585     Br  0.02422947  0.95726312  0.89072324    -0.05900
Br3586     Br  0.05289351  0.05059790  0.96536834    -0.00300
Br3587     Br  0.04201643  0.01269687  0.80352590     0.00200
Br3588     Br  0.10148442  0.98169145  0.90717050    -0.04200
Br3589     Br  0.99111303  0.96583747  0.94172948     0.00300
Br3590     Br  0.07611490  0.04836402  0.90929551    -0.03500
Br3591     Br  0.01458402  0.01988800  0.85820630    -0.04400
Br3592     Br  0.13368600  0.98915801  0.85602872    -0.00400
C3593       C  0.01785074  0.83462196  0.08439963     0.01000
C3594       C  0.02004049  0.83724724  0.05836290     0.03800
C3595       C  0.01938846  0.86107611  0.04721420    -0.12200
C3596       C  0.01469112  0.88232977  0.06163963     0.23100
C3597       C  0.01366078  0.87971199  0.08755395    -0.12800
C3598       C  0.01780201  0.85657738  0.09883169     0.04500
C3599       C  0.01413311  0.90785472  0.05034196     0.27000
C3600       C  0.03405793  0.92413086  0.05440862    -0.13500
C3601       C  0.03308665  0.94895118  0.04596574     0.05100
C3602       C  0.01264501  0.95777471  0.03150458    -0.09500
C3603       C  0.99356473  0.94035959  0.02601649     0.05900
C3604       C  0.99370879  0.91623085  0.03637587    -0.13800
Br3605     Br  0.00692685  0.90812954  0.10792338    -0.05900
Br3606     Br  0.02771294  0.80881413  0.03835289    -0.00300
Br3607     Br  0.06042009  0.96930786  0.05553579     0.00200
Br3608     Br  0.96578815  0.89444376  0.03140866    -0.04200
Br3609     Br  0.02662406  0.85669476  0.13364593     0.00300
Br3610     Br  0.02649393  0.86491874  0.01246027    -0.03500
Br3611     Br  0.06302520  0.91183296  0.07192331    -0.04400
Br3612     Br  0.96894238  0.94760789  0.00109223    -0.00400
C3613       C  0.17092542  0.91883769  0.99663300     0.01000
C3614       C  0.16959343  0.94294166  0.98634968     0.03800
C3615       C  0.14624595  0.95442197  0.98230366    -0.12200
C3616       C  0.12423751  0.94380415  0.99182745     0.23100
C3617       C  0.12587595  0.92057763  0.00375130    -0.12800
C3618       C  0.14860157  0.90776125  0.00492482     0.04500
C3619       C  0.09948003  0.95680565  0.98987654     0.27000
C3620       C  0.09512076  0.97928260  0.00232449    -0.13500
C3621       C  0.07115893  0.99003914  0.00231135     0.05100
C3622       C  0.05024214  0.97684507  0.99320080    -0.09500
C3623       C  0.05476540  0.95365656  0.98184791     0.05900
C3624       C  0.07929652  0.94531822  0.97785323    -0.13800
Br3625     Br  0.09691341  0.90573488  0.01863853    -0.05900
Br3626     Br  0.19938773  0.96019859  0.97696396    -0.00300
Br3627     Br  0.06705310  0.02119014  0.01880673     0.00200
Br3628     Br  0.08532759  0.91772841  0.95604912    -0.04200
Br3629     Br  0.14835957  0.87489210  0.01847879     0.00300
Br3630     Br  0.14417010  0.98357724  0.96178591    -0.03500
Br3631     Br  0.12131594  0.99429942  0.02167460    -0.04400
Br3632     Br  0.02854424  0.93059675  0.97553272    -0.00400
C3633       C  0.92992967  0.99325436  0.17377262     0.01000
C3634       C  0.94965071  0.01063103  0.17097341     0.03800
C3635       C  0.96265503  0.01260664  0.14825461    -0.12200
C3636       C  0.95656226  0.99728327  0.12808141     0.23100
C3637       C  0.93902272  0.97832235  0.13163678    -0.12800
C3638       C  0.92623656  0.97594416  0.15436279     0.04500
C3639       C  0.96764241  0.00181118  0.10290551     0.27000
C3640       C  0.95767253  0.02013997  0.08705476    -0.13500
C3641       C  0.96756143  0.02347810  0.06287127     0.05100
C3642       C  0.98531538  0.00601827  0.05370306    -0.09500
C3643       C  0.00068127  0.99680763  0.07264656     0.05900
C3644       C  0.99016777  0.99070125  0.09574486    -0.13800
Br3645     Br  0.93193402  0.95586490  0.10492769    -0.05900
Br3646     Br  0.95948844  0.03232777  0.19756954    -0.00300
Br3647     Br  0.96086571  0.05471640  0.04677650     0.00200
Br3648     Br  0.00998530  0.97306268  0.11947227    -0.04200
Br3649     Br  0.90406206  0.94828561  0.15842493     0.00300
Br3650     Br  0.98860611  0.03691525  0.14426562    -0.03500
Br3651     Br  0.93169202  0.04144398  0.09915189    -0.04400
Br3652     Br  0.03003238  0.01653255  0.07636376    -0.00400
C3653       C  0.99044212  0.04569800  0.97537976     0.01000
C3654       C  0.98001794  0.05240969  0.95208403     0.03800
C3655       C  0.97678479  0.07760647  0.94554211    -0.12200
C3656       C  0.98878569  0.09648341  0.95896943     0.23100
C3657       C  0.00074042  0.08999583  0.98128506    -0.12800
C3658       C  0.00018223  0.06526063  0.99013023     0.04500
C3659       C  0.99250151  0.12166547  0.94715671     0.27000
C3660       C  0.00698908  0.12353438  0.92553456    -0.13500
C3661       C  0.00853765  0.14601627  0.91227210     0.05100
C3662       C  0.99791490  0.16806621  0.92157438    -0.09500
C3663       C  0.98588096  0.16679085  0.94492777     0.05900
C3664       C  0.98186545  0.14354862  0.95679143    -0.13800
Br3665     Br  0.02014526  0.11450988  0.99859286    -0.05900
Br3666     Br  0.97418529  0.02864165  0.92645539    -0.00300
Br3667     Br  0.02616437  0.14602601  0.88150087     0.00200
Br3668     Br  0.96072519  0.14147678  0.98549305    -0.04200
Br3669     Br  0.01677522  0.05825588  0.02093438     0.00300
Br3670     Br  0.95658446  0.08652889  0.91731489    -0.03500
Br3671     Br  0.02541020  0.09507427  0.91421035    -0.04400
Br3672     Br  0.97422168  0.19652192  0.96059555    -0.00400
loop_ 
_geom_bond_atom_site_label_1 
_geom_bond_atom_site_label_2 
_geom_bond_distance 
_geom_bond_site_symmetry_2 
_ccdc_geom_bond_type 
C1            C2   1.452   1_554  A
C1            C6   1.442       .  A
C1         C3562   1.555       .  S
C2            C3   1.445   1_655  A
C2         C3653   1.532       .  S
C3            C4   1.443   1_545  A
C3         C3573   1.536       .  S
C4            C5   1.444   1_556  A
C4         C3622   1.525       .  S
C5            C6   1.455   1_465  A
C5         C3602   1.536       .  S
C6         C3642   1.556       .  S
O7           C15   1.265       .  A
O7          Co27   1.997       .  S
O8           C16   1.270       .  A
O8          Co28   2.026       .  S
O9           C17   1.269       .  A
O9          Co29   1.992       .  S
O10          C18   1.255       .  A
O10         Co30   1.975       .  S
O11          C17   1.269       .  A
O11         Co28   2.029       .  S
O12          C18   1.274       .  A
O12         Co27   2.069       .  S
O13          C16   1.265       .  A
O13         Co30   1.971   1_655  S
O14          C15   1.262       .  A
O14         Co29   1.970   1_455  S
C15        C3442   1.475       .  S
C16        C3453   1.503       .  S
C17        C3533   1.499       .  S
C18        C3493   1.506       .  S
O19          C32   1.251       .  A
O19         Co27   1.951       .  S
O20          C33   1.263       .  A
O20         Co28   1.963       .  S
O21          C34   1.278       .  A
O21         Co29   2.059       .  S
O22          C35   1.264       .  A
O22         Co30   1.997       .  S
O23          C35   1.259   1_655  A
O23         Co28   1.981       .  S
O24          C34   1.264   1_455  A
O24         Co27   1.996       .  S
O25          C32   1.277       .  A
O25         Co30   2.056       .  S
O26          C33   1.268       .  A
O26         Co29   2.012       .  S
Co27         O31   2.113       .  S
Co28         O31   2.109   1_655  S
Co29         O31   2.109   1_655  S
Co30         O31   2.116       .  S
C32        C3413   1.485       .  S
C33        C3473   1.473       .  S
C34        C3662   1.518       .  S
C35        C3513   1.508       .  S
O36          C44   1.276       .  A
O36         Co56   2.037       .  S
O37          C45   1.270       .  A
O37         Co57   2.014       .  S
O38          C46   1.263       .  A
O38         Co58   1.982       .  S
O39          C47   1.274       .  A
O39         Co59   2.002       .  S
O40          C46   1.265       .  A
O40         Co57   2.011       .  S
O41          C47   1.269       .  A
O41         Co56   2.029       .  S
O42          C45   1.264       .  A
O42         Co59   1.970   1_565  S
O43          C44   1.253       .  A
O43         Co58   1.944   1_545  S
C44        C3302   1.473       .  S
C45        C3322   1.483       .  S
C46        C3353   1.503       .  S
C47        C3373   1.510       .  S
O48          C61   1.264       .  A
O48         Co56   1.962       .  S
O49          C62   1.260       .  A
O49         Co57   1.963       .  S
O50          C63   1.275       .  A
O50         Co58   2.048       .  S
O51          C64   1.278       .  A
O51         Co59   2.052       .  S
O52          C64   1.260   1_565  A
O52         Co57   1.967       .  S
O53          C63   1.258   1_545  A
O53         Co56   1.977       .  S
O54          C61   1.265       .  A
O54         Co59   2.002       .  S
O55          C62   1.266       .  A
O55         Co58   1.998       .  S
Co56         O60   2.097   1_545  S
Co57         O60   2.099       .  S
Co58         O60   2.101       .  S
Co59         O60   2.110   1_545  S
C61        C3282   1.464       .  S
C62        C3333   1.491       .  S
C63        C3633   1.520       .  S
C64        C3393   1.500       .  S
C65          C66   1.443       .  A
C65          C70   1.449   1_545  A
C65        C3202   1.536       .  S
C66          C67   1.441   1_455  A
C66        C3242   1.519       .  S
C67          C68   1.441   1_545  A
C67        C3402   1.528       .  S
C68          C69   1.444       .  A
C68        C3182   1.533       .  S
C69          C70   1.448   1_655  A
C69        C3253   1.530       .  S
C70        C3213   1.532       .  S
O71          C79   1.274       .  A
O71         Co91   2.024       .  S
O72          C80   1.273       .  A
O72         Co92   2.022       .  S
O73          C81   1.266       .  A
O73         Co93   1.985       .  S
O74          C82   1.265       .  A
O74         Co94   1.995       .  S
O75          C81   1.267       .  A
O75         Co92   2.020       .  S
O76          C82   1.270       .  A
O76         Co91   2.026       .  S
O77          C80   1.262       .  A
O77         Co94   1.959   1_655  S
O78          C79   1.260       .  A
O78         Co93   1.955   1_455  S
C79        C3042   1.478       .  S
C80        C3062   1.483       .  S
C81        C3153   1.502       .  S
C82        C3122   1.511       .  S
O83          C96   1.257       .  A
O83         Co91   1.951       .  S
O84          C97   1.259       .  A
O84         Co92   1.949       .  S
O85          C98   1.274       .  A
O85         Co93   2.046       .  S
O86          C99   1.274       .  A
O86         Co94   2.048       .  S
O87          C99   1.261   1_655  A
O87         Co92   1.978       .  S
O88          C98   1.261   1_455  A
O88         Co91   1.986       .  S
O89          C96   1.273       .  A
O89         Co94   2.017       .  S
O90          C97   1.269       .  A
O90         Co93   2.006       .  S
Co91         O95   2.090   1_455  S
Co92         O95   2.093       .  S
Co93         O95   2.100       .  S
Co94         O95   2.100   1_455  S
C96        C3082   1.481       .  S
C97        C3102   1.460       .  S
C98        C3262   1.508       .  S
C99        C3133   1.508   1_455  S
O100        C108   1.276       .  A
O100       Co120   2.030       .  S
O101        C109   1.280       .  A
O101       Co121   2.040       .  S
O102        C110   1.262       .  A
O102       Co122   1.982       .  S
O103        C111   1.257       .  A
O103       Co123   1.970       .  S
O104        C110   1.267       .  A
O104       Co121   2.011       .  S
O105        C111   1.271       .  A
O105       Co120   2.042       .  S
O106        C109   1.254       .  A
O106       Co123   1.955   1_556  S
O107        C108   1.260       .  A
O107       Co122   1.953   1_554  S
C108       C2893   1.480       .  S
C109       C2913   1.494       .  S
C110       C2973   1.502       .  S
C111       C2993   1.498       .  S
O112        C125   1.259       .  A
O112       Co120   1.955       .  S
O113        C126   1.265       .  A
O113       Co121   1.966       .  S
O114        C127   1.271       .  A
O114       Co122   2.034       .  S
O115        C128   1.267       .  A
O115       Co123   2.023       .  S
O116        C128   1.261   1_556  A
O116       Co121   1.979       .  S
O117        C127   1.262   1_554  A
O117       Co120   1.989       .  S
O118        C125   1.276       .  A
O118       Co123   2.035       .  S
O119        C126   1.272       .  A
O119       Co122   2.014       .  S
Co120       O124   2.101       .  S
Co121       O124   2.098   1_556  S
Co122       O124   2.095   1_556  S
Co123       O124   2.093       .  S
C125       C2933   1.486       .  S
C126       C2953   1.476       .  S
C127       C3613   1.508       .  S
C128       C3013   1.497       .  S
O129        C137   1.267   1_455  A
O129       Co149   1.968       .  S
O130        C138   1.256   1_655  A
O130       Co150   1.956       .  S
O131        C139   1.270       .  A
O131       Co151   2.056       .  S
O132        C140   1.265       .  A
O132       Co152   2.022       .  S
O133        C139   1.250       .  A
O133       Co150   1.959       .  S
O134        C140   1.262       .  A
O134       Co149   1.974       .  S
O135        C138   1.278       .  A
O135       Co152   2.051       .  S
O136        C137   1.267       .  A
O136       Co151   2.009       .  S
C137       C3342   1.497       .  S
C138       C2822   1.478       .  S
C139       C2853   1.498       .  S
C140       C2882   1.490       .  S
O141        C154   1.271       .  A
O141       Co149   2.023       .  S
O142        C155   1.278       .  A
O142       Co150   2.044       .  S
O143        C156   1.262       .  A
O143       Co151   1.990   1_455  S
O144        C157   1.261   1_455  A
O144       Co152   1.978       .  S
O145        C157   1.266       .  A
O145       Co150   2.028       .  S
O146        C156   1.267       .  A
O146       Co149   2.017       .  S
O147        C154   1.266       .  A
O147       Co152   1.970       .  S
O148        C155   1.256       .  A
O148       Co151   1.955       .  S
Co149       O153   2.106       .  S
Co150       O153   2.101   1_655  S
Co151       O153   2.121   1_655  S
Co152       O153   2.120       .  S
C154       C2902   1.483       .  S
C155       C2793   1.471       .  S
C156       C3593   1.512       .  S
C157       C2833   1.506       .  S
C158        C159   1.444       .  A
C158        C163   1.448       .  A
C158       C2742   1.534       .  S
C159        C160   1.441       .  A
C159       C3002   1.537       .  S
C160        C161   1.443       .  A
C160       C2873   1.519       .  S
C161        C162   1.445       .  A
C161       C2762   1.531       .  S
C162        C163   1.446       .  A
C162       C2773   1.537       .  S
C163       C2713   1.525       .  S
O164        C172   1.248       .  A
O164       Co184   1.942       .  S
O165        C173   1.273       .  A
O165       Co185   1.991       .  S
O166        C174   1.263       .  A
O166       Co186   2.014       .  S
O167        C175   1.272       .  A
O167       Co187   2.050       .  S
O168        C174   1.267       .  A
O168       Co185   1.993       .  S
O169        C175   1.257       .  A
O169       Co184   1.978       .  S
O170        C173   1.271       .  A
O170       Co187   2.023       .  S
O171        C172   1.278       .  A
O171       Co186   2.051       .  S
C172       C3073   1.468       .  S
C173       C2633   1.502       .  S
C174       C2702   1.509       .  S
C175       C2782   1.510       .  S
O176        C189   1.273       .  A
O176       Co184   2.017       .  S
O177        C190   1.280       .  A
O177       Co185   2.057       .  S
O178        C191   1.252       .  A
O178       Co186   1.976       .  S
O179        C192   1.266       .  A
O179       Co187   1.983       .  S
O180        C192   1.267       .  A
O180       Co185   2.022       .  S
O181        C191   1.272       .  A
O181       Co184   2.065       .  S
O182        C189   1.262       .  A
O182       Co187   1.973       .  S
O183        C190   1.260       .  A
O183       Co186   1.959       .  S
Co184       O188   2.110       .  S
Co185       O188   2.121       .  S
Co186       O188   2.112       .  S
Co187       O188   2.112       .  S
C189       C2593   1.497       .  S
C190       C2613   1.486       .  S
C191       C2682   1.503       .  S
C192       C2662   1.499       .  S
C193        C194   1.450       .  A
C193        C198   1.451       .  A
C193       C2562   1.526       .  S
C194        C195   1.447       .  A
C194       C2693   1.535       .  S
C195        C196   1.442       .  A
C195       C3113   1.534       .  S
C196        C197   1.439       .  A
C196       C2533   1.527       .  S
C197        C198   1.439       .  A
C197       C2982   1.522       .  S
C198       C2582   1.540       .  S
O199        C207   1.279       .  A
O199       Co219   2.049       .  S
O200        C208   1.264       .  A
O200       Co220   1.996       .  S
O201        C209   1.266       .  A
O201       Co221   1.986       .  S
O202        C210   1.262       .  A
O202       Co222   1.985       .  S
O203        C209   1.267       .  A
O203       Co220   2.033       .  S
O204        C210   1.266       .  A
O204       Co219   2.031       .  S
O205        C208   1.260       .  A
O205       Co222   1.947       .  S
O206        C207   1.261       .  A
O206       Co221   1.967       .  S
C207       C2922   1.483       .  S
C208       C2442   1.483       .  S
C209       C2473   1.518       .  S
C210       C2513   1.514       .  S
O211        C224   1.258       .  A
O211       Co219   1.953       .  S
O212        C225   1.270       .  A
O212       Co220   1.966       .  S
O213        C226   1.266       .  A
O213       Co221   2.034       .  S
O214        C227   1.270       .  A
O214       Co222   2.039       .  S
O215        C227   1.268       .  A
O215       Co220   1.995       .  S
O216        C226   1.256       .  A
O216       Co219   1.971       .  S
O217        C224   1.272       .  A
O217       Co222   2.013       .  S
O218        C225   1.265       .  A
O218       Co221   2.009       .  S
Co219       O223   2.108       .  S
Co220       O223   2.110       .  S
Co221       O223   2.105       .  S
Co222       O223   2.100       .  S
C224       C2413   1.494       .  S
C225       C2453   1.502       .  S
C226       C2573   1.498       .  S
C227       C2502   1.521       .  S
C228        C229   1.438       .  A
C228        C233   1.435       .  A
C228       C2333   1.518       .  S
C229        C230   1.444       .  A
C229       C3542   1.526       .  S
C230        C231   1.450       .  A
C230       C2393   1.540       .  S
C231        C232   1.453       .  A
C231       C2373   1.528       .  S
C232        C233   1.441       .  A
C232       C2353   1.531       .  S
C233       C2313   1.532       .  S
O234        C242   1.266       .  A
O234       Co254   1.997       .  S
O235        C243   1.277       .  A
O235       Co255   2.041       .  S
O236        C244   1.261       .  A
O236       Co256   1.978       .  S
O237        C245   1.260       .  A
O237       Co257   1.980       .  S
O238        C244   1.268       .  A
O238       Co255   2.033       .  S
O239        C245   1.267       .  A
O239       Co254   2.042       .  S
O240        C243   1.265       .  A
O240       Co257   1.981       .  S
O241        C242   1.268       .  A
O241       Co256   1.978       .  S
C242       C3462   1.496       .  S
C243       C3053   1.489       .  S
C244       C2253   1.508       .  S
C245       C2273   1.506       .  S
O246        C259   1.262       .  A
O246       Co254   1.963       .  S
O247        C260   1.264       .  A
O247       Co255   1.972       .  S
O248        C261   1.265       .  A
O248       Co256   2.024       .  S
O249        C262   1.266       .  A
O249       Co257   2.023       .  S
O250        C262   1.262       .  A
O250       Co255   1.983       .  S
O251        C261   1.266       .  A
O251       Co254   1.995       .  S
O252        C259   1.280       .  A
O252       Co257   2.052       .  S
O253        C260   1.278       .  A
O253       Co256   2.047       .  S
Co254       O258   2.125       .  S
Co255       O258   2.124       .  S
Co256       O258   2.124       .  S
Co257       O258   2.119       .  S
C259       C2242   1.483       .  S
C260       C2222   1.488       .  S
C261       C2402   1.533       .  S
C262       C2293   1.507       .  S
O263        C271   1.270       .  A
O263       Co283   1.979   1_655  S
O264        C272   1.251   1_655  A
O264       Co284   1.948       .  S
O265        C273   1.274       .  A
O265       Co285   2.074       .  S
O266        C274   1.265       .  A
O266       Co286   2.023       .  S
O267        C273   1.243       .  A
O267       Co284   1.954       .  S
O268        C274   1.262       .  A
O268       Co283   1.978       .  S
O269        C272   1.280       .  A
O269       Co286   2.063       .  S
O270        C271   1.264       .  A
O270       Co285   1.999       .  S
C271       C3273   1.475       .  S
C272       C2133   1.477       .  S
C273       C2182   1.505       .  S
C274       C2202   1.499       .  S
O275        C288   1.278       .  A
O275       Co283   2.044       .  S
O276        C289   1.281       .  A
O276       Co284   2.066       .  S
O277        C290   1.265       .  A
O277       Co285   1.985   1_455  S
O278        C291   1.254   1_455  A
O278       Co286   1.969       .  S
O279        C291   1.259       .  A
O279       Co284   2.018       .  S
O280        C290   1.265       .  A
O280       Co283   2.018       .  S
O281        C288   1.261       .  A
O281       Co286   1.952       .  S
O282        C289   1.254       .  A
O282       Co285   1.957       .  S
Co283       O287   2.111       .  S
Co284       O287   2.103   1_655  S
Co285       O287   2.120   1_655  S
Co286       O287   2.116       .  S
C288       C2122   1.495       .  S
C289       C2102   1.493       .  S
C290       C3233   1.492       .  S
C291       C2162   1.486       .  S
C292        C293   1.437       .  A
C292        C297   1.442       .  A
C292       C2062   1.535       .  S
C293        C294   1.442       .  A
C293       C2013   1.520       .  S
C294        C295   1.445       .  A
C294       C2193   1.526       .  S
C295        C296   1.440       .  A
C295       C2002   1.526       .  S
C296        C297   1.445       .  A
C296       C2073   1.539       .  S
C297       C2042   1.512       .  S
O298        C306   1.263       .  A
O298       Co318   1.960   1_556  S
O299        C307   1.259   1_556  A
O299       Co319   1.954       .  S
O300        C308   1.271       .  A
O300       Co320   2.046       .  S
O301        C309   1.264       .  A
O301       Co321   2.013       .  S
O302        C308   1.260       .  A
O302       Co319   1.979       .  S
O303        C309   1.266       .  A
O303       Co318   1.987       .  S
O304        C307   1.281       .  A
O304       Co321   2.066       .  S
O305        C306   1.264       .  A
O305       Co320   1.993       .  S
C306       C3422   1.489       .  S
C307       C1913   1.492       .  S
C308       C1973   1.513       .  S
C309       C2082   1.496       .  S
O310        C323   1.269       .  A
O310       Co318   2.008       .  S
O311        C324   1.271       .  A
O311       Co319   2.014       .  S
O312        C325   1.268   1_556  A
O312       Co320   1.996       .  S
O313        C326   1.259   1_554  A
O313       Co321   1.971       .  S
O314        C326   1.267       .  A
O314       Co319   2.022       .  S
O315        C325   1.272       .  A
O315       Co318   2.035       .  S
O316        C323   1.269       .  A
O316       Co321   1.979       .  S
O317        C324   1.265       .  A
O317       Co320   1.961       .  S
Co318       O322   2.108   1_554  S
Co319       O322   2.103       .  S
Co320       O322   2.119       .  S
Co321       O322   2.113   1_554  S
C323       C1893   1.477       .  S
C324       C1873   1.495       .  S
C325       C1942   1.521       .  S
C326       C1953   1.489       .  S
C327        C328   1.446       .  A
C327        C332   1.443       .  A
C327       C1982   1.532       .  S
C328        C329   1.445       .  A
C328       C3502   1.529       .  S
C329        C330   1.449       .  A
C329       C1813   1.530       .  S
C330        C331   1.444       .  A
C330       C1793   1.538       .  S
C331        C332   1.442       .  A
C331       C1862   1.520       .  S
C332       C1842   1.534       .  S
O333        C341   1.263       .  A
O333       Co353   1.999       .  S
O334        C342   1.274       .  A
O334       Co354   2.038       .  S
O335        C343   1.253       .  A
O335       Co355   1.960       .  S
O336        C344   1.250       .  A
O336       Co356   1.969       .  S
O337        C343   1.271       .  A
O337       Co354   2.047       .  S
O338        C344   1.277       .  A
O338       Co353   2.087       .  S
O339        C342   1.257       .  A
O339       Co356   1.962       .  S
O340        C341   1.258       .  A
O340       Co355   1.957       .  S
C341       C1673   1.479       .  S
C342       C1713   1.477       .  S
C343       C1773   1.501       .  S
C344       C1753   1.515       .  S
O345        C358   1.248       .  A
O345       Co353   1.944       .  S
O346        C359   1.255       .  A
O346       Co354   1.951       .  S
O347        C360   1.268       .  A
O347       Co355   2.032       .  S
O348        C361   1.264       .  A
O348       Co356   2.025       .  S
O349        C361   1.256       .  A
O349       Co354   1.968       .  S
O350        C360   1.261       .  A
O350       Co353   1.984       .  S
O351        C358   1.277       .  A
O351       Co356   2.052       .  S
O352        C359   1.280       .  A
O352       Co355   2.054       .  S
Co353       O357   2.117       .  S
Co354       O357   2.110       .  S
Co355       O357   2.106       .  S
Co356       O357   2.114       .  S
C358       C1733   1.475       .  S
C359       C1702   1.499       .  S
C360       C2362   1.513       .  S
C361       C1853   1.496       .  S
O362        C370   1.261   1_545  A
O362       Co382   1.970       .  S
O363        C371   1.267   1_565  A
O363       Co383   1.977       .  S
O364        C372   1.265       .  A
O364       Co384   2.022       .  S
O365        C373   1.272       .  A
O365       Co385   2.046       .  S
O366        C372   1.261       .  A
O366       Co383   1.975       .  S
O367        C373   1.258       .  A
O367       Co382   1.976       .  S
O368        C371   1.270       .  A
O368       Co385   2.017       .  S
O369        C370   1.276       .  A
O369       Co384   2.043       .  S
C370       C2942   1.481       .  S
C371       C1613   1.511       .  S
C372       C2733   1.500       .  S
C373       C2053   1.509       .  S
O374        C387   1.276       .  A
O374       Co382   2.045       .  S
O375        C388   1.276       .  A
O375       Co383   2.042       .  S
O376        C389   1.256   1_565  A
O376       Co384   1.963       .  S
O377        C390   1.266       .  A
O377       Co385   1.986   1_565  S
O378        C390   1.262       .  A
O378       Co383   2.010       .  S
O379        C389   1.268       .  A
O379       Co382   2.040       .  S
O380        C387   1.264       .  A
O380       Co385   1.975       .  S
O381        C388   1.259       .  A
O381       Co384   1.957       .  S
Co382       O386   2.119   1_545  S
Co383       O386   2.114       .  S
Co384       O386   2.118       .  S
Co385       O386   2.117   1_545  S
C387       C1593   1.491       .  S
C388       C1573   1.506       .  S
C389       C1642   1.499       .  S
C390       C1662   1.507       .  S
C391        C392   1.437       .  A
C391        C396   1.439       .  A
C391       C1782   1.529       .  S
C392        C393   1.446   1_545  A
C392       C1513   1.540       .  S
C393        C394   1.456       .  A
C393       C1653   1.510       .  S
C394        C395   1.451       .  A
C394       C1562   1.558       .  S
C395        C396   1.444   1_565  A
C395       C1502   1.526       .  S
C396       C1533   1.524       .  S
O397        C405   1.276       .  A
O397       Co417   1.985       .  S
O398        C406   1.259       .  A
O398       Co418   1.960       .  S
O399        C407   1.270       .  A
O399       Co419   2.030       .  S
O400        C408   1.263       .  A
O400       Co420   1.999       .  S
O401        C407   1.263       .  A
O401       Co418   1.984       .  S
O402        C408   1.268       .  A
O402       Co417   2.005       .  S
O403        C406   1.276       .  A
O403       Co420   2.036       .  S
O404        C405   1.272       .  A
O404       Co419   2.016       .  S
C405       C2642   1.488       .  S
C406       C1433   1.494       .  S
C407       C1453   1.502       .  S
C408       C1553   1.520       .  S
O409        C422   1.274       .  A
O409       Co417   2.023       .  S
O410        C423   1.271       .  A
O410       Co418   2.010       .  S
O411        C424   1.270       .  A
O411       Co419   1.995       .  S
O412        C425   1.260       .  A
O412       Co420   1.977       .  S
O413        C425   1.273       .  A
O413       Co418   2.054       .  S
O414        C424   1.264       .  A
O414       Co417   2.013       .  S
O415        C422   1.263       .  A
O415       Co420   1.954       .  S
O416        C423   1.267       .  A
O416       Co419   1.971       .  S
Co417       O421   2.117       .  S
Co418       O421   2.107       .  S
Co419       O421   2.106       .  S
Co420       O421   2.103       .  S
C422       C1582   1.492       .  S
C423       C1422   1.484       .  S
C424       C2722   1.496       .  S
C425       C1473   1.510       .  S
O426        C434   1.252       .  A
O426       Co446   1.945       .  S
O427        C435   1.265       .  A
O427       Co447   1.962       .  S
O428        C436   1.268       .  A
O428       Co448   2.030       .  S
O429        C437   1.273       .  A
O429       Co449   2.045       .  S
O430        C436   1.264   1_545  A
O430       Co447   1.987       .  S
O431        C437   1.267   1_565  A
O431       Co446   1.987       .  S
O432        C435   1.270       .  A
O432       Co449   2.021       .  S
O433        C434   1.274       .  A
O433       Co448   2.047       .  S
C434       C2422   1.474       .  S
C435       C1693   1.503       .  S
C436       C1393   1.519       .  S
C437       C1542   1.508       .  S
O438        C451   1.263       .  A
O438       Co446   1.993       .  S
O439        C452   1.271       .  A
O439       Co447   2.026       .  S
O440        C453   1.250       .  A
O440       Co448   1.962       .  S
O441        C454   1.265       .  A
O441       Co449   2.001       .  S
O442        C454   1.275       .  A
O442       Co447   2.018       .  S
O443        C453   1.278       .  A
O443       Co446   2.076       .  S
O444        C451   1.270       .  A
O444       Co449   1.990   1_565  S
O445        C452   1.253       .  A
O445       Co448   1.951   1_545  S
Co446       O450   2.107       .  S
Co447       O450   2.112   1_545  S
Co448       O450   2.106       .  S
Co449       O450   2.118   1_545  S
C451       C1353   1.484       .  S
C452       C1342   1.480       .  S
C453       C1373   1.507       .  S
C454       C2322   1.512       .  S
C455        C456   1.434       .  A
C455        C460   1.456   1_565  A
C455       C1402   1.565       .  S
C456        C457   1.450   1_556  A
C456       C2522   1.554       .  S
C457        C458   1.439   1_565  A
C457       C3022   1.514       .  S
C458        C459   1.440       .  A
C458       C1633   1.540       .  S
C459        C460   1.448   1_554  A
C459       C1313   1.520       .  S
C460       C1302   1.522       .  S
O461        C469   1.253       .  A
O461       Co481   1.956       .  S
O462        C470   1.266       .  A
O462       Co482   1.976       .  S
O463        C471   1.266       .  A
O463       Co483   2.017       .  S
O464        C472   1.269       .  A
O464       Co484   2.025       .  S
O465        C471   1.266       .  A
O465       Co482   1.994       .  S
O466        C472   1.262       .  A
O466       Co481   1.972       .  S
O467        C470   1.275       .  A
O467       Co484   2.041       .  S
O468        C469   1.277       .  A
O468       Co483   2.067       .  S
C469       C1922   1.499       .  S
C470       C1233   1.499       .  S
C471       C1262   1.506       .  S
C472       C1322   1.498       .  S
O473        C486   1.264       .  A
O473       Co481   1.993       .  S
O474        C487   1.275       .  A
O474       Co482   2.043       .  S
O475        C488   1.251       .  A
O475       Co483   1.963       .  S
O476        C489   1.267       .  A
O476       Co484   1.984       .  S
O477        C489   1.272       .  A
O477       Co482   2.042       .  S
O478        C488   1.276       .  A
O478       Co481   2.064       .  S
O479        C486   1.270       .  A
O479       Co484   1.997       .  S
O480        C487   1.262       .  A
O480       Co483   1.973       .  S
Co481       O485   2.111       .  S
Co482       O485   2.114       .  S
Co483       O485   2.115       .  S
Co484       O485   2.129       .  S
C486       C1602   1.503       .  S
C487       C1213   1.489       .  S
C488       C2033   1.494       .  S
C489       C1273   1.510       .  S
O490        C498   1.275       .  A
O490       Co510   2.029       .  S
O491        C499   1.270       .  A
O491       Co511   2.018       .  S
O492        C500   1.266       .  A
O492       Co512   1.986       .  S
O493        C501   1.254       .  A
O493       Co513   1.964       .  S
O494        C500   1.267       .  A
O494       Co511   2.024       .  S
O495        C501   1.268       .  A
O495       Co510   2.036       .  S
O496        C499   1.263       .  A
O496       Co513   1.974       .  S
O497        C498   1.263       .  A
O497       Co512   1.956       .  S
C498       C2113   1.485       .  S
C499       C1722   1.498       .  S
C500       C1802   1.512       .  S
C501       C2022   1.489       .  S
O502        C515   1.255       .  A
O502       Co510   1.943       .  S
O503        C516   1.266       .  A
O503       Co511   1.977       .  S
O504        C517   1.269       .  A
O504       Co512   2.039       .  S
O505        C518   1.267       .  A
O505       Co513   2.020       .  S
O506        C518   1.270       .  A
O506       Co511   1.998       .  S
O507        C517   1.257       .  A
O507       Co510   1.970       .  S
O508        C515   1.282       .  A
O508       Co513   2.064       .  S
O509        C516   1.268       .  A
O509       Co512   1.982       .  S
Co510       O514   2.103       .  S
Co511       O514   2.115       .  S
Co512       O514   2.108       .  S
Co513       O514   2.097       .  S
C515       C1622   1.504       .  S
C516       C1202   1.488       .  S
C517       C3193   1.498       .  S
C518       C1522   1.517       .  S
C519        C520   1.443       .  A
C519        C524   1.447       .  A
C519       C3362   1.516       .  S
C520        C521   1.431       .  A
C520       C2862   1.540       .  S
C521        C522   1.439       .  A
C521       C1153   1.514       .  S
C522        C523   1.441       .  A
C522       C1182   1.514       .  S
C523        C524   1.445       .  A
C523       C1482   1.540       .  S
C524       C1142   1.526       .  S
O525        C533   1.267       .  A
O525       Co545   1.995       .  S
O526        C534   1.271       .  A
O526       Co546   2.016       .  S
O527        C535   1.265       .  A
O527       Co547   1.979       .  S
O528        C536   1.261       .  A
O528       Co548   1.980       .  S
O529        C535   1.270       .  A
O529       Co546   2.021       .  S
O530        C536   1.276       .  A
O530       Co545   2.057       .  S
O531        C534   1.262       .  A
O531       Co548   1.972       .  S
O532        C533   1.264       .  A
O532       Co547   1.964       .  S
C533       C1413   1.470       .  S
C534       C1222   1.492       .  S
C535       C1073   1.509       .  S
C536       C1102   1.499       .  S
O537        C550   1.253       .  A
O537       Co545   1.941       .  S
O538        C551   1.261       .  A
O538       Co546   1.961       .  S
O539        C552   1.270       .  A
O539       Co547   2.031       .  S
O540        C553   1.270       .  A
O540       Co548   2.029       .  S
O541        C553   1.266       .  A
O541       Co546   1.984       .  S
O542        C552   1.265       .  A
O542       Co545   1.993       .  S
O543        C550   1.272       .  A
O543       Co548   2.026       .  S
O544        C551   1.271       .  A
O544       Co547   2.017       .  S
Co545       O549   2.098       .  S
Co546       O549   2.091       .  S
Co547       O549   2.110       .  S
Co548       O549   2.102       .  S
C550       C1042   1.467       .  S
C551       C1062   1.484       .  S
C552       C1173   1.496       .  S
C553       C1122   1.509       .  S
C554        C555   1.453       .  A
C554        C559   1.449       .  A
C554       C1282   1.566       .  S
C555        C556   1.453       .  A
C555       C1002   1.525       .  S
C556        C557   1.441       .  A
C556       C3382   1.533       .  S
C557        C558   1.441       .  A
C557       C2173   1.530       .  S
C558        C559   1.456       .  A
C558       C1013   1.543       .  S
C559       C1113   1.538       .  S
C560        C561   1.434       .  A
C560        C565   1.438       .  A
C560       C3162   1.521       .  S
C561        C562   1.436       .  A
C561        C953   1.517       .  S
C562        C563   1.457       .  A
C562       C1382   1.541       .  S
C563        C564   1.459       .  A
C563       C2493   1.560       .  S
C564        C565   1.465       .  A
C564        C973   1.560       .  S
C565       C2302   1.545       .  S
O566        C574   1.265       .  A
O566       Co586   1.967   1_565  S
O567        C575   1.261       .  A
O567       Co587   1.953   1_545  S
O568        C576   1.276       .  A
O568       Co588   2.061       .  S
O569        C577   1.268       .  A
O569       Co589   2.027       .  S
O570        C576   1.258       .  A
O570       Co587   1.978       .  S
O571        C577   1.268       .  A
O571       Co586   1.990       .  S
O572        C575   1.274       .  A
O572       Co589   2.028       .  S
O573        C574   1.269       .  A
O573       Co588   2.006       .  S
C574       C2962   1.475       .  S
C575       C1193   1.496       .  S
C576       C2542   1.508       .  S
C577       C1822   1.496       .  S
O578        C591   1.269       .  A
O578       Co586   2.005       .  S
O579        C592   1.274       .  A
O579       Co587   2.028       .  S
O580        C593   1.265   1_565  A
O580       Co588   1.993       .  S
O581        C594   1.268   1_545  A
O581       Co589   1.999       .  S
O582        C594   1.262       .  A
O582       Co587   2.008       .  S
O583        C593   1.274       .  A
O583       Co586   2.049       .  S
O584        C591   1.267       .  A
O584       Co589   1.969       .  S
O585        C592   1.256       .  A
O585       Co588   1.950       .  S
Co586       O590   2.099   1_545  S
Co587       O590   2.100       .  S
Co588       O590   2.108       .  S
Co589       O590   2.113   1_545  S
C591       C3433   1.474       .  S
C592       C3033   1.478       .  S
C593       C3582   1.525       .  S
C594       C3222   1.512       .  S
O595        C603   1.262       .  A
O595       Co615   1.961       .  S
O596        C604   1.266       .  A
O596       Co616   1.969       .  S
O597        C605   1.264       .  A
O597       Co617   2.011       .  S
O598        C606   1.272       .  A
O598       Co618   2.066       .  S
O599        C605   1.261       .  A
O599       Co616   1.974       .  S
O600        C606   1.252       .  A
O600       Co615   1.973       .  S
O601        C604   1.268       .  A
O601       Co618   2.003       .  S
O602        C603   1.276       .  A
O602       Co617   2.043       .  S
C603       C2213   1.501       .  S
C604       C1033   1.473       .  S
C605        C942   1.497       .  S
C606        C913   1.508       .  S
O607        C620   1.283       .  A
O607       Co615   2.060       .  S
O608        C621   1.279       .  A
O608       Co616   2.042       .  S
O609        C622   1.262       .  A
O609       Co617   1.977       .  S
O610        C623   1.259       .  A
O610       Co618   1.974       .  S
O611        C623   1.264       .  A
O611       Co616   2.020       .  S
O612        C622   1.262       .  A
O612       Co615   2.013       .  S
O613        C620   1.247       .  A
O613       Co618   1.932       .  S
O614        C621   1.263       .  A
O614       Co617   1.966       .  S
Co615       O619   2.097       .  S
Co616       O619   2.099       .  S
Co617       O619   2.100       .  S
Co618       O619   2.103       .  S
C620       C1682   1.466       .  S
C621       C2093   1.500       .  S
C622       C2382   1.491       .  S
C623       C1022   1.506       .  S
C624        C625   1.446       .  A
C624        C629   1.448       .  A
C624        C933   1.523       .  S
C625        C626   1.449       .  A
C625       C2262   1.541       .  S
C626        C627   1.444   1_655  A
C626       C3142   1.530   1_655  S
C627        C628   1.436       .  A
C627       C2673   1.523       .  S
C628        C629   1.438   1_455  A
C628        C902   1.530       .  S
C629       C2153   1.529       .  S
O630        C638   1.271       .  A
O630       Co650   2.017       .  S
O631        C639   1.275       .  A
O631       Co651   2.024       .  S
O632        C640   1.260       .  A
O632       Co652   1.971       .  S
O633        C641   1.248       .  A
O633       Co653   1.956       .  S
O634        C640   1.268       .  A
O634       Co651   2.034       .  S
O635        C641   1.268       .  A
O635       Co650   2.046       .  S
O636        C639   1.258   1_554  A
O636       Co653   1.949       .  S
O637        C638   1.263       .  A
O637       Co652   1.969   1_554  S
C638       C2802   1.492       .  S
C639       C2433   1.462       .  S
C640        C982   1.501       .  S
C641       C1162   1.485       .  S
O642        C655   1.252       .  A
O642       Co650   1.948       .  S
O643        C656   1.267       .  A
O643       Co651   1.966       .  S
O644        C657   1.267       .  A
O644       Co652   2.023       .  S
O645        C658   1.260       .  A
O645       Co653   2.001       .  S
O646        C658   1.268   1_556  A
O646       Co651   1.996       .  S
O647        C657   1.255   1_554  A
O647       Co650   1.960       .  S
O648        C655   1.281       .  A
O648       Co653   2.058       .  S
O649        C656   1.276       .  A
O649       Co652   2.036       .  S
Co650       O654   2.104       .  S
Co651       O654   2.104   1_556  S
Co652       O654   2.107   1_556  S
Co653       O654   2.095       .  S
C655       C1053   1.479       .  S
C656       C2233   1.490       .  S
C657        C853   1.491       .  S
C658        C873   1.500       .  S
C659        C660   1.455       .  A
C659        C664   1.442       .  A
C659       C1082   1.533       .  S
C660        C661   1.450   1_554  A
C660        C882   1.529       .  S
C661        C662   1.446       .  A
C661       C2482   1.540       .  S
C662        C663   1.440       .  A
C662        C833   1.531       .  S
C663        C664   1.434   1_556  A
C663       C1962   1.510       .  S
C664       C1253   1.536       .  S
O665        C673   1.268       .  A
O665       Co685   1.977   1_556  S
O666        C674   1.264       .  A
O666       Co686   1.962   1_554  S
O667        C675   1.273       .  A
O667       Co687   2.055       .  S
O668        C676   1.271       .  A
O668       Co688   2.030       .  S
O669        C675   1.252       .  A
O669       Co686   1.966       .  S
O670        C676   1.268       .  A
O670       Co685   1.990       .  S
O671        C674   1.274       .  A
O671       Co688   2.031       .  S
O672        C673   1.270       .  A
O672       Co687   2.014       .  S
C673       C3482   1.488       .  S
C674       C1242   1.479       .  S
C675       C2342   1.497       .  S
C676        C993   1.517       .  S
O677        C690   1.271       .  A
O677       Co685   2.007       .  S
O678        C691   1.281       .  A
O678       Co686   2.058       .  S
O679        C692   1.258   1_556  A
O679       Co687   1.972       .  S
O680        C693   1.262   1_554  A
O680       Co688   1.980       .  S
O681        C693   1.260       .  A
O681       Co686   2.009       .  S
O682        C692   1.270       .  A
O682       Co685   2.042       .  S
O683        C690   1.258       .  A
O683       Co688   1.954       .  S
O684        C691   1.249       .  A
O684       Co687   1.944       .  S
Co685       O689   2.109   1_554  S
Co686       O689   2.102       .  S
Co687       O689   2.108       .  S
Co688       O689   2.102   1_554  S
C690       C3293   1.479       .  S
C691       C1333   1.474       .  S
C692       C3553   1.516       .  S
C693       C1293   1.489       .  S
O694        C702   1.271       .  A
O694       Co714   2.004       .  S
O695        C703   1.279       .  A
O695       Co715   2.053       .  S
O696        C704   1.262       .  A
O696       Co716   1.976       .  S
O697        C705   1.250       .  A
O697       Co717   1.968       .  S
O698        C704   1.267       .  A
O698       Co715   2.032       .  S
O699        C705   1.273       .  A
O699       Co714   2.070       .  S
O700        C703   1.261       .  A
O700       Co717   1.953       .  S
O701        C702   1.261       .  A
O701       Co716   1.964       .  S
C702       C2622   1.486       .  S
C703       C1882   1.486       .  S
C704       C1833   1.500       .  S
C705       C2553   1.506       .  S
O706        C719   1.255       .  A
O706       Co714   1.957       .  S
O707        C720   1.261       .  A
O707       Co715   1.959       .  S
O708        C721   1.269       .  A
O708       Co716   2.031       .  S
O709        C722   1.262       .  A
O709       Co717   2.008       .  S
O710        C722   1.258       .  A
O710       Co715   1.975       .  S
O711        C721   1.263       .  A
O711       Co714   1.990       .  S
O712        C719   1.282       .  A
O712       Co717   2.067       .  S
O713        C720   1.272       .  A
O713       Co716   2.026       .  S
Co714       O718   2.115       .  S
Co715       O718   2.109       .  S
Co716       O718   2.112       .  S
Co717       O718   2.103       .  S
C719       C2462   1.490       .  S
C720       C1742   1.485       .  S
C721        C822   1.514       .  S
C722        C842   1.493       .  S
O723        C731   1.267       .  A
O723       Co743   2.001       .  S
O724        C732   1.271       .  A
O724       Co744   2.022       .  S
O725        C733   1.252       .  A
O725       Co745   1.966       .  S
O726        C734   1.264       .  A
O726       Co746   1.992       .  S
O727        C733   1.273       .  A
O727       Co744   2.056       .  S
O728        C734   1.277       .  A
O728       Co743   2.054       .  S
O729        C732   1.263       .  A
O729       Co746   1.965       .  S
O730        C731   1.268       .  A
O730       Co745   1.972       .  S
C731       C3313   1.471       .  S
C732       C1362   1.483       .  S
C733       C1493   1.502       .  S
C734       C3173   1.521       .  S
O735        C748   1.260       .  A
O735       Co743   1.955       .  S
O736        C749   1.244       .  A
O736       Co744   1.937       .  S
O737        C750   1.257       .  A
O737       Co745   1.994       .  S
O738        C751   1.272       .  A
O738       Co746   2.051       .  S
O739        C751   1.255       .  A
O739       Co744   1.973       .  S
O740        C750   1.272       .  A
O740       Co743   2.005       .  S
O741        C748   1.274       .  A
O741       Co746   2.018       .  S
O742        C749   1.285       .  A
O742       Co745   2.080       .  S
Co743       O747   2.107       .  S
Co744       O747   2.102       .  S
Co745       O747   2.103       .  S
Co746       O747   2.110       .  S
C748       C3093   1.474       .  S
C749       C1442   1.480       .  S
C750       C1133   1.496       .  S
C751        C962   1.504       .  S
O752        C760   1.272       .  A
O752       Co772   1.968       .  S
O753        C761   1.261       .  A
O753       Co773   1.958       .  S
O754        C762   1.266       .  A
O754       Co774   2.017       .  S
O755        C763   1.268       .  A
O755       Co775   2.055       .  S
O756        C762   1.260       .  A
O756       Co773   1.973       .  S
O757        C763   1.251       .  A
O757       Co772   1.966       .  S
O758        C761   1.272       .  A
O758       Co775   2.020       .  S
O759        C760   1.269       .  A
O759       Co774   2.034       .  S
C760       C2813   1.493       .  S
C761       C2142   1.483       .  S
C762        C802   1.494       .  S
C763        C893   1.498       .  S
O764        C777   1.285       .  A
O764       Co772   2.071       .  S
O765        C778   1.274       .  A
O765       Co773   2.019       .  S
O766        C779   1.268       .  A
O766       Co774   1.991       .  S
O767        C780   1.257       .  A
O767       Co775   1.973       .  S
O768        C780   1.269       .  A
O768       Co773   2.034       .  S
O769        C779   1.259       .  A
O769       Co772   2.000       .  S
O770        C777   1.250       .  A
O770       Co775   1.942       .  S
O771        C778   1.268       .  A
O771       Co774   1.971       .  S
Co772       O776   2.095       .  S
Co773       O776   2.100       .  S
Co774       O776   2.104       .  S
Co775       O776   2.109       .  S
C777       C2602   1.483       .  S
C778       C1902   1.484       .  S
C779       C2753   1.491       .  S
C780       C1993   1.506       .  S
C781        C782   1.450       .  A
C781        C786   1.450       .  A
C781        C813   1.530       .  S
C782        C783   1.443       .  A
C782       C2653   1.542       .  S
C783        C784   1.443       .  A
C783       C1462   1.522       .  S
C784        C785   1.438       .  A
C784       C1093   1.523       .  S
C785        C786   1.441       .  A
C785        C922   1.533       .  S
C786       C1762   1.529       .  S
C787        C788   1.454   1_655  A
C787        C792   1.448       .  A
C787       C2282   1.546       .  S
C788        C789   1.445   1_556  A
C788       C3522   1.528       .  S
C789        C790   1.437       .  A
C789       C1933   1.534       .  S
C790        C791   1.434   1_455  A
C790        C793   1.508       .  S
C791        C792   1.445   1_554  A
C791       C2842   1.543       .  S
C792        C862   1.515       .  S
C793        C794   1.418       .  A
C793        C798   1.421       .  A
C794        C795   1.410       .  A
C794       Br806   1.915       .  S
C795        C796   1.407       .  A
C795       Br810   1.934       .  S
C796        C797   1.401       .  A
C796        C799   1.484       .  S
C797        C798   1.405       .  A
C797       Br805   1.933       .  S
C798       Br809   1.921   1_455  S
C799        C800   1.402       .  A
C799        C804   1.409       .  A
C800        C801   1.402       .  A
C800       Br811   1.939       .  S
C801        C802   1.422       .  A
C801       Br807   1.924       .  S
C802        C803   1.417       .  A
C803        C804   1.413       .  A
C803       Br812   1.929       .  S
C804       Br808   1.929       .  S
C813        C814   1.424       .  A
C813        C818   1.424       .  A
C814        C815   1.413       .  A
C814       Br826   1.917       .  S
C815        C816   1.406       .  A
C815       Br830   1.934       .  S
C816        C817   1.409       .  A
C816        C819   1.507       .  S
C817        C818   1.418       .  A
C817       Br825   1.935       .  S
C818       Br829   1.911       .  S
C819        C820   1.413       .  A
C819        C824   1.408       .  A
C820        C821   1.420       .  A
C820       Br831   1.932       .  S
C821        C822   1.421       .  A
C821       Br827   1.929       .  S
C822        C823   1.425       .  A
C823        C824   1.412       .  A
C823       Br832   1.930       .  S
C824       Br828   1.935       .  S
C833        C834   1.431       .  A
C833        C838   1.423       .  A
C834        C835   1.414       .  A
C834       Br846   1.911       .  S
C835        C836   1.404       .  A
C835       Br850   1.938       .  S
C836        C837   1.402       .  A
C836        C839   1.495       .  S
C837        C838   1.410       .  A
C837       Br845   1.930       .  S
C838       Br849   1.919       .  S
C839        C840   1.411       .  A
C839        C844   1.409       .  A
C840        C841   1.413       .  A
C840       Br851   1.931       .  S
C841        C842   1.415       .  A
C841       Br847   1.930       .  S
C842        C843   1.412       .  A
C843        C844   1.409       .  A
C843       Br852   1.916       .  S
C844       Br848   1.933       .  S
C853        C854   1.418       .  A
C853        C858   1.420       .  A
C854        C855   1.410       .  A
C854       Br866   1.932       .  S
C855        C856   1.409       .  A
C855       Br870   1.929       .  S
C856        C857   1.404       .  A
C856        C859   1.487       .  S
C857        C858   1.405       .  A
C857       Br865   1.933       .  S
C858       Br869   1.929   1_556  S
C859        C860   1.403   1_556  A
C859        C864   1.404       .  A
C860        C861   1.405       .  A
C860       Br871   1.933       .  S
C861        C862   1.421   1_554  A
C861       Br867   1.923       .  S
C862        C863   1.424       .  A
C863        C864   1.412       .  A
C863       Br872   1.916       .  S
C864       Br868   1.933       .  S
C873        C874   1.413   1_554  A
C873        C878   1.420       .  A
C874        C875   1.412       .  A
C874       Br886   1.926       .  S
C875        C876   1.412   1_556  A
C875       Br890   1.927       .  S
C876        C877   1.411       .  A
C876        C879   1.503       .  S
C877        C878   1.414       .  A
C877       Br885   1.932       .  S
C878       Br889   1.928       .  S
C879        C880   1.409       .  A
C879        C884   1.405       .  A
C880        C881   1.418       .  A
C880       Br891   1.936       .  S
C881        C882   1.429       .  A
C881       Br887   1.918       .  S
C882        C883   1.422       .  A
C883        C884   1.411       .  A
C883       Br892   1.922   1_554  S
C884       Br888   1.931       .  S
C893        C894   1.415       .  A
C893        C898   1.416       .  A
C894        C895   1.414       .  A
C894       Br906   1.925       .  S
C895        C896   1.411       .  A
C895       Br910   1.927       .  S
C896        C897   1.406       .  A
C896        C899   1.495       .  S
C897        C898   1.408       .  A
C897       Br905   1.935       .  S
C898       Br909   1.916       .  S
C899        C900   1.403       .  A
C899        C904   1.405       .  A
C900        C901   1.413       .  A
C900       Br911   1.936       .  S
C901        C902   1.427       .  A
C901       Br907   1.918   1_455  S
C902        C903   1.423       .  A
C903        C904   1.415       .  A
C903       Br912   1.911       .  S
C904       Br908   1.934       .  S
C913        C914   1.416       .  A
C913        C918   1.417       .  A
C914        C915   1.416       .  A
C914       Br926   1.923       .  S
C915        C916   1.411       .  A
C915       Br930   1.928       .  S
C916        C917   1.406       .  A
C916        C919   1.501       .  S
C917        C918   1.412       .  A
C917       Br925   1.929       .  S
C918       Br929   1.916       .  S
C919        C920   1.402       .  A
C919        C924   1.407       .  A
C920        C921   1.411       .  A
C920       Br931   1.933       .  S
C921        C922   1.423       .  A
C921       Br927   1.916       .  S
C922        C923   1.428       .  A
C923        C924   1.420       .  A
C923       Br932   1.914       .  S
C924       Br928   1.934       .  S
C933        C934   1.427       .  A
C933        C938   1.423       .  A
C934        C935   1.413       .  A
C934       Br946   1.914       .  S
C935        C936   1.405       .  A
C935       Br950   1.936       .  S
C936        C937   1.402       .  A
C936        C939   1.490       .  S
C937        C938   1.406       .  A
C937       Br945   1.934       .  S
C938       Br949   1.919       .  S
C939        C940   1.404       .  A
C939        C944   1.410       .  A
C940        C941   1.405       .  A
C940       Br951   1.937       .  S
C941        C942   1.424       .  A
C941       Br947   1.930       .  S
C942        C943   1.418       .  A
C943        C944   1.413       .  A
C943       Br952   1.931       .  S
C944       Br948   1.930       .  S
C953        C954   1.423       .  A
C953        C958   1.418       .  A
C954        C955   1.415       .  A
C954       Br966   1.928       .  S
C955        C956   1.408       .  A
C955       Br970   1.933       .  S
C956        C957   1.407       .  A
C956        C959   1.499       .  S
C957        C958   1.410       .  A
C957       Br965   1.932       .  S
C958       Br969   1.914       .  S
C959        C960   1.411       .  A
C959        C964   1.409       .  A
C960        C961   1.417       .  A
C960       Br971   1.928       .  S
C961        C962   1.418       .  A
C961       Br967   1.926       .  S
C962        C963   1.415       .  A
C963        C964   1.407       .  A
C963       Br972   1.915       .  S
C964       Br968   1.935       .  S
C973        C974   1.445       .  A
C973        C978   1.408       .  A
C974        C975   1.432       .  A
C974       Br986   1.927       .  S
C975        C976   1.413       .  A
C975       Br990   1.929       .  S
C976        C977   1.401       .  A
C976        C979   1.506       .  S
C977        C978   1.398       .  A
C977       Br985   1.911       .  S
C978       Br989   1.907       .  S
C979        C980   1.413       .  A
C979        C984   1.412       .  A
C980        C981   1.413       .  A
C980       Br991   1.929       .  S
C981        C982   1.416       .  A
C981       Br987   1.928       .  S
C982        C983   1.414       .  A
C983        C984   1.416       .  A
C983       Br992   1.929       .  S
C984       Br988   1.920       .  S
C993        C994   1.420       .  A
C993        C998   1.428       .  A
C994        C995   1.419       .  A
C994      Br1006   1.929       .  S
C995        C996   1.413       .  A
C995      Br1010   1.928       .  S
C996        C997   1.406       .  A
C996        C999   1.506       .  S
C997        C998   1.413       .  A
C997      Br1005   1.936       .  S
C998      Br1009   1.928       .  S
C999       C1000   1.407       .  A
C999       C1004   1.411       .  A
C1000      C1001   1.412       .  A
C1000     Br1011   1.932       .  S
C1001      C1002   1.423       .  A
C1001     Br1007   1.926       .  S
C1002      C1003   1.423       .  A
C1003      C1004   1.419       .  A
C1003     Br1012   1.922       .  S
C1004     Br1008   1.930       .  S
C1013      C1014   1.414       .  A
C1013      C1018   1.412       .  A
C1014      C1015   1.422       .  A
C1014     Br1026   1.923       .  S
C1015      C1016   1.420       .  A
C1015     Br1030   1.924       .  S
C1016      C1017   1.412       .  A
C1016      C1019   1.502       .  S
C1017      C1018   1.403       .  A
C1017     Br1025   1.924       .  S
C1018     Br1029   1.912       .  S
C1019      C1020   1.408       .  A
C1019      C1024   1.415       .  A
C1020      C1021   1.411       .  A
C1020     Br1031   1.928       .  S
C1021      C1022   1.424       .  A
C1021     Br1027   1.927       .  S
C1022      C1023   1.417       .  A
C1023      C1024   1.414       .  A
C1023     Br1032   1.933       .  S
C1024     Br1028   1.930       .  S
C1033      C1034   1.418       .  A
C1033      C1038   1.418       .  A
C1034      C1035   1.394       .  A
C1034     Br1046   1.932       .  S
C1035      C1036   1.403       .  A
C1035     Br1050   1.934       .  S
C1036      C1037   1.404       .  A
C1036      C1039   1.470       .  S
C1037      C1038   1.406       .  A
C1037     Br1045   1.930       .  S
C1038     Br1049   1.935       .  S
C1039      C1040   1.408       .  A
C1039      C1044   1.403       .  A
C1040      C1041   1.396       .  A
C1040     Br1051   1.932       .  S
C1041      C1042   1.407       .  A
C1041     Br1047   1.926       .  S
C1042      C1043   1.419       .  A
C1043      C1044   1.404       .  A
C1043     Br1052   1.935       .  S
C1044     Br1048   1.933       .  S
C1053      C1054   1.401       .  A
C1053      C1058   1.411       .  A
C1054      C1055   1.404       .  A
C1054     Br1066   1.920       .  S
C1055      C1056   1.410       .  A
C1055     Br1070   1.924       .  S
C1056      C1057   1.407       .  A
C1056      C1059   1.478       .  S
C1057      C1058   1.405       .  A
C1057     Br1065   1.930       .  S
C1058     Br1069   1.925       .  S
C1059      C1060   1.405       .  A
C1059      C1064   1.405       .  A
C1060      C1061   1.401       .  A
C1060     Br1071   1.926       .  S
C1061      C1062   1.416       .  A
C1061     Br1067   1.936       .  S
C1062      C1063   1.422       .  A
C1063      C1064   1.408       .  A
C1063     Br1072   1.936       .  S
C1064     Br1068   1.930       .  S
C1073      C1074   1.427       .  A
C1073      C1078   1.422       .  A
C1074      C1075   1.409       .  A
C1074     Br1086   1.935       .  S
C1075      C1076   1.407       .  A
C1075     Br1090   1.938       .  S
C1076      C1077   1.412       .  A
C1076      C1079   1.501       .  S
C1077      C1078   1.418       .  A
C1077     Br1085   1.930       .  S
C1078     Br1089   1.932       .  S
C1079      C1080   1.404       .  A
C1079      C1084   1.405       .  A
C1080      C1081   1.411       .  A
C1080     Br1091   1.932       .  S
C1081      C1082   1.425       .  A
C1081     Br1087   1.919       .  S
C1082      C1083   1.429       .  A
C1083      C1084   1.416       .  A
C1083     Br1092   1.914       .  S
C1084     Br1088   1.935       .  S
C1093      C1094   1.424       .  A
C1093      C1098   1.422       .  A
C1094      C1095   1.416       .  A
C1094     Br1106   1.915       .  S
C1095      C1096   1.408       .  A
C1095     Br1110   1.935       .  S
C1096      C1097   1.403       .  A
C1096      C1099   1.496       .  S
C1097      C1098   1.410       .  A
C1097     Br1105   1.934       .  S
C1098     Br1109   1.918       .  S
C1099      C1100   1.412       .  A
C1099      C1104   1.408       .  A
C1100      C1101   1.415       .  A
C1100     Br1111   1.928       .  S
C1101      C1102   1.414       .  A
C1101     Br1107   1.923       .  S
C1102      C1103   1.414       .  A
C1103      C1104   1.408       .  A
C1103     Br1112   1.919       .  S
C1104     Br1108   1.933       .  S
C1113      C1114   1.404       .  A
C1113      C1118   1.420       .  A
C1114      C1115   1.405       .  A
C1114     Br1126   1.916       .  S
C1115      C1116   1.411       .  A
C1115     Br1130   1.917       .  S
C1116      C1117   1.414       .  A
C1116      C1119   1.503       .  S
C1117      C1118   1.421       .  A
C1117     Br1125   1.925       .  S
C1118     Br1129   1.914       .  S
C1119      C1120   1.403       .  A
C1119      C1124   1.415       .  A
C1120      C1121   1.412       .  A
C1120     Br1131   1.929       .  S
C1121      C1122   1.425       .  A
C1121     Br1127   1.928       .  S
C1122      C1123   1.417       .  A
C1123      C1124   1.418       .  A
C1123     Br1132   1.932       .  S
C1124     Br1128   1.927       .  S
C1133      C1134   1.420       .  A
C1133      C1138   1.412       .  A
C1134      C1135   1.411       .  A
C1134     Br1146   1.930       .  S
C1135      C1136   1.410       .  A
C1135     Br1150   1.929       .  S
C1136      C1137   1.413       .  A
C1136      C1139   1.502       .  S
C1137      C1138   1.412       .  A
C1137     Br1145   1.929       .  S
C1138     Br1149   1.922       .  S
C1139      C1140   1.406       .  A
C1139      C1144   1.410       .  A
C1140      C1141   1.409       .  A
C1140     Br1151   1.933       .  S
C1141      C1142   1.422       .  A
C1141     Br1147   1.919       .  S
C1142      C1143   1.425       .  A
C1143      C1144   1.416       .  A
C1143     Br1152   1.915       .  S
C1144     Br1148   1.934       .  S
C1153      C1154   1.421       .  A
C1153      C1158   1.424       .  A
C1154      C1155   1.405       .  A
C1154     Br1166   1.922       .  S
C1155      C1156   1.402       .  A
C1155     Br1170   1.936       .  S
C1156      C1157   1.404       .  A
C1156      C1159   1.482       .  S
C1157      C1158   1.411       .  A
C1157     Br1165   1.934       .  S
C1158     Br1169   1.915       .  S
C1159      C1160   1.403       .  A
C1159      C1164   1.412       .  A
C1160      C1161   1.398       .  A
C1160     Br1171   1.932       .  S
C1161      C1162   1.409       .  A
C1161     Br1167   1.913       .  S
C1162      C1163   1.413       .  A
C1163      C1164   1.411       .  A
C1163     Br1172   1.927       .  S
C1164     Br1168   1.926       .  S
C1173      C1174   1.416       .  A
C1173      C1178   1.414       .  A
C1174      C1175   1.402       .  A
C1174     Br1186   1.912       .  S
C1175      C1176   1.405       .  A
C1175     Br1190   1.940       .  S
C1176      C1177   1.411       .  A
C1176      C1179   1.490       .  S
C1177      C1178   1.415       .  A
C1177     Br1185   1.926       .  S
C1178     Br1189   1.923       .  S
C1179      C1180   1.406       .  A
C1179      C1184   1.404       .  A
C1180      C1181   1.410       .  A
C1180     Br1191   1.934       .  S
C1181      C1182   1.420       .  A
C1181     Br1187   1.915       .  S
C1182      C1183   1.422       .  A
C1183      C1184   1.409       .  A
C1183     Br1192   1.924       .  S
C1184     Br1188   1.934       .  S
C1193      C1194   1.424       .  A
C1193      C1198   1.426       .  A
C1194      C1195   1.411       .  A
C1194     Br1206   1.932       .  S
C1195      C1196   1.403       .  A
C1195     Br1210   1.930       .  S
C1196      C1197   1.402       .  A
C1196      C1199   1.476       .  S
C1197      C1198   1.401       .  A
C1197     Br1205   1.932       .  S
C1198     Br1209   1.944       .  S
C1199      C1200   1.402       .  A
C1199      C1204   1.406       .  A
C1200      C1201   1.395       .  A
C1200     Br1211   1.940       .  S
C1201      C1202   1.428       .  A
C1201     Br1207   1.949       .  S
C1202      C1203   1.420       .  A
C1203      C1204   1.411       .  A
C1203     Br1212   1.932       .  S
C1204     Br1208   1.927       .  S
C1213      C1214   1.412       .  A
C1213      C1218   1.417       .  A
C1214      C1215   1.411       .  A
C1214     Br1226   1.926       .  S
C1215      C1216   1.411       .  A
C1215     Br1230   1.929       .  S
C1216      C1217   1.402       .  A
C1216      C1219   1.482       .  S
C1217      C1218   1.402       .  A
C1217     Br1225   1.937       .  S
C1218     Br1229   1.913       .  S
C1219      C1220   1.405       .  A
C1219      C1224   1.406       .  A
C1220      C1221   1.409       .  A
C1220     Br1231   1.931       .  S
C1221      C1222   1.422       .  A
C1221     Br1227   1.934       .  S
C1222      C1223   1.421       .  A
C1223      C1224   1.404       .  A
C1223     Br1232   1.934       .  S
C1224     Br1228   1.935       .  S
C1233      C1234   1.423       .  A
C1233      C1238   1.421       .  A
C1234      C1235   1.412       .  A
C1234     Br1246   1.926       .  S
C1235      C1236   1.404       .  A
C1235     Br1250   1.930       .  S
C1236      C1237   1.406       .  A
C1236      C1239   1.487       .  S
C1237      C1238   1.406       .  A
C1237     Br1245   1.936       .  S
C1238     Br1249   1.927       .  S
C1239      C1240   1.411       .  A
C1239      C1244   1.407       .  A
C1240      C1241   1.414       .  A
C1240     Br1251   1.929   1_554  S
C1241      C1242   1.419       .  A
C1241     Br1247   1.933   1_554  S
C1242      C1243   1.406       .  A
C1243      C1244   1.395       .  A
C1243     Br1252   1.918       .  S
C1244     Br1248   1.932       .  S
C1253      C1254   1.424       .  A
C1253      C1258   1.423       .  A
C1254      C1255   1.415       .  A
C1254     Br1266   1.924   1_554  S
C1255      C1256   1.409       .  A
C1255     Br1270   1.933       .  S
C1256      C1257   1.416       .  A
C1256      C1259   1.518       .  S
C1257      C1258   1.424       .  A
C1257     Br1265   1.931       .  S
C1258     Br1269   1.919       .  S
C1259      C1260   1.414       .  A
C1259      C1264   1.415       .  A
C1260      C1261   1.420       .  A
C1260     Br1271   1.929       .  S
C1261      C1262   1.418       .  A
C1261     Br1267   1.925       .  S
C1262      C1263   1.416       .  A
C1263      C1264   1.417       .  A
C1263     Br1272   1.928       .  S
C1264     Br1268   1.930       .  S
C1273      C1274   1.417       .  A
C1273      C1278   1.418       .  A
C1274      C1275   1.418       .  A
C1274     Br1286   1.928       .  S
C1275      C1276   1.414       .  A
C1275     Br1290   1.926       .  S
C1276      C1277   1.414       .  A
C1276      C1279   1.517       .  S
C1277      C1278   1.419       .  A
C1277     Br1285   1.928       .  S
C1278     Br1289   1.930       .  S
C1279      C1280   1.407       .  A
C1279      C1284   1.403       .  A
C1280      C1281   1.424       .  A
C1280     Br1291   1.933       .  S
C1281      C1282   1.435       .  A
C1281     Br1287   1.915       .  S
C1282      C1283   1.437       .  A
C1283      C1284   1.422       .  A
C1283     Br1292   1.908       .  S
C1284     Br1288   1.938       .  S
C1293      C1294   1.414   1_556  A
C1293      C1298   1.414       .  A
C1294      C1295   1.413       .  A
C1294     Br1306   1.932       .  S
C1295      C1296   1.415   1_554  A
C1295     Br1310   1.927       .  S
C1296      C1297   1.409       .  A
C1296      C1299   1.500       .  S
C1297      C1298   1.406       .  A
C1297     Br1305   1.926       .  S
C1298     Br1309   1.927       .  S
C1299      C1300   1.407       .  A
C1299      C1304   1.410       .  A
C1300      C1301   1.412       .  A
C1300     Br1311   1.931   1_546  S
C1301      C1302   1.425       .  A
C1301     Br1307   1.935   1_546  S
C1302      C1303   1.429       .  A
C1303      C1304   1.414       .  A
C1303     Br1312   1.923       .  S
C1304     Br1308   1.941       .  S
C1313      C1314   1.427       .  A
C1313      C1318   1.419       .  A
C1314      C1315   1.415       .  A
C1314     Br1326   1.914       .  S
C1315      C1316   1.406       .  A
C1315     Br1330   1.936       .  S
C1316      C1317   1.403       .  A
C1316      C1319   1.491       .  S
C1317      C1318   1.405       .  A
C1317     Br1325   1.932       .  S
C1318     Br1329   1.921       .  S
C1319      C1320   1.403       .  A
C1319      C1324   1.411       .  A
C1320      C1321   1.407       .  A
C1320     Br1331   1.935       .  S
C1321      C1322   1.424       .  A
C1321     Br1327   1.925       .  S
C1322      C1323   1.416       .  A
C1323      C1324   1.412       .  A
C1323     Br1332   1.931       .  S
C1324     Br1328   1.928       .  S
C1333      C1334   1.405       .  A
C1333      C1338   1.408       .  A
C1334      C1335   1.405       .  A
C1334     Br1346   1.923       .  S
C1335      C1336   1.410       .  A
C1335     Br1350   1.928       .  S
C1336      C1337   1.404       .  A
C1336      C1339   1.472       .  S
C1337      C1338   1.400       .  A
C1337     Br1345   1.929       .  S
C1338     Br1349   1.924       .  S
C1339      C1340   1.402       .  A
C1339      C1344   1.405       .  A
C1340      C1341   1.406       .  A
C1340     Br1351   1.933   1_545  S
C1341      C1342   1.424       .  A
C1341     Br1347   1.936   1_545  S
C1342      C1343   1.415       .  A
C1343      C1344   1.399       .  A
C1343     Br1352   1.934       .  S
C1344     Br1348   1.928       .  S
C1353      C1354   1.419       .  A
C1353      C1358   1.417       .  A
C1354      C1355   1.395       .  A
C1354     Br1366   1.929       .  S
C1355      C1356   1.403       .  A
C1355     Br1370   1.932       .  S
C1356      C1357   1.408       .  A
C1356      C1359   1.483       .  S
C1357      C1358   1.413       .  A
C1357     Br1365   1.928   1_565  S
C1358     Br1369   1.930   1_565  S
C1359      C1360   1.406       .  A
C1359      C1364   1.409       .  A
C1360      C1361   1.409       .  A
C1360     Br1371   1.929       .  S
C1361      C1362   1.418       .  A
C1361     Br1367   1.934       .  S
C1362      C1363   1.415       .  A
C1363      C1364   1.402       .  A
C1363     Br1372   1.929       .  S
C1364     Br1368   1.936       .  S
C1373      C1374   1.417       .  A
C1373      C1378   1.414       .  A
C1374      C1375   1.410       .  A
C1374     Br1386   1.924       .  S
C1375      C1376   1.407       .  A
C1375     Br1390   1.928       .  S
C1376      C1377   1.413       .  A
C1376      C1379   1.503       .  S
C1377      C1378   1.417       .  A
C1377     Br1385   1.926       .  S
C1378     Br1389   1.923       .  S
C1379      C1380   1.403       .  A
C1379      C1384   1.402       .  A
C1380      C1381   1.416       .  A
C1380     Br1391   1.932       .  S
C1381      C1382   1.426       .  A
C1381     Br1387   1.922       .  S
C1382      C1383   1.435       .  A
C1383      C1384   1.420       .  A
C1383     Br1392   1.912       .  S
C1384     Br1388   1.938       .  S
C1393      C1394   1.425       .  A
C1393      C1398   1.426   1_565  A
C1394      C1395   1.416       .  A
C1394     Br1406   1.937       .  S
C1395      C1396   1.409       .  A
C1395     Br1410   1.923       .  S
C1396      C1397   1.411   1_565  A
C1396      C1399   1.513       .  S
C1397      C1398   1.420       .  A
C1397     Br1405   1.931       .  S
C1398     Br1409   1.931       .  S
C1399      C1400   1.410       .  A
C1399      C1404   1.408   1_565  A
C1400      C1401   1.428       .  A
C1400     Br1411   1.932       .  S
C1401      C1402   1.445       .  A
C1401     Br1407   1.931       .  S
C1402      C1403   1.407   1_565  A
C1403      C1404   1.408       .  A
C1403     Br1412   1.909       .  S
C1404     Br1408   1.920       .  S
C1413      C1414   1.417       .  A
C1413      C1418   1.414       .  A
C1414      C1415   1.405       .  A
C1414     Br1426   1.932       .  S
C1415      C1416   1.404       .  A
C1415     Br1430   1.931       .  S
C1416      C1417   1.407       .  A
C1416      C1419   1.473       .  S
C1417      C1418   1.396       .  A
C1417     Br1425   1.929       .  S
C1418     Br1429   1.933       .  S
C1419      C1420   1.402       .  A
C1419      C1424   1.403       .  A
C1420      C1421   1.398       .  A
C1420     Br1431   1.933       .  S
C1421      C1422   1.423       .  A
C1421     Br1427   1.932       .  S
C1422      C1423   1.420       .  A
C1423      C1424   1.405       .  A
C1423     Br1432   1.928       .  S
C1424     Br1428   1.933       .  S
C1433      C1434   1.426       .  A
C1433      C1438   1.416       .  A
C1434      C1435   1.413       .  A
C1434     Br1446   1.934       .  S
C1435      C1436   1.404       .  A
C1435     Br1450   1.931       .  S
C1436      C1437   1.400       .  A
C1436      C1439   1.474       .  S
C1437      C1438   1.397       .  A
C1437     Br1445   1.937       .  S
C1438     Br1449   1.911       .  S
C1439      C1440   1.405       .  A
C1439      C1444   1.408       .  A
C1440      C1441   1.401       .  A
C1440     Br1451   1.928       .  S
C1441      C1442   1.411       .  A
C1441     Br1447   1.928       .  S
C1442      C1443   1.409       .  A
C1443      C1444   1.407       .  A
C1443     Br1452   1.920       .  S
C1444     Br1448   1.927       .  S
C1453      C1454   1.420       .  A
C1453      C1458   1.417       .  A
C1454      C1455   1.402       .  A
C1454     Br1466   1.909       .  S
C1455      C1456   1.399       .  A
C1455     Br1470   1.938       .  S
C1456      C1457   1.412       .  A
C1456      C1459   1.488       .  S
C1457      C1458   1.417       .  A
C1457     Br1465   1.927       .  S
C1458     Br1469   1.928       .  S
C1459      C1460   1.407       .  A
C1459      C1464   1.398       .  A
C1460      C1461   1.416       .  A
C1460     Br1471   1.934       .  S
C1461      C1462   1.424       .  A
C1461     Br1467   1.916       .  S
C1462      C1463   1.425       .  A
C1463      C1464   1.406       .  A
C1463     Br1472   1.913       .  S
C1464     Br1468   1.936       .  S
C1473      C1474   1.419       .  A
C1473      C1478   1.419       .  A
C1474      C1475   1.411       .  A
C1474     Br1486   1.919       .  S
C1475      C1476   1.407       .  A
C1475     Br1490   1.929       .  S
C1476      C1477   1.412       .  A
C1476      C1479   1.507       .  S
C1477      C1478   1.418       .  A
C1477     Br1485   1.928       .  S
C1478     Br1489   1.928       .  S
C1479      C1480   1.405       .  A
C1479      C1484   1.406       .  A
C1480      C1481   1.416       .  A
C1480     Br1491   1.934       .  S
C1481      C1482   1.425       .  A
C1481     Br1487   1.921       .  S
C1482      C1483   1.430       .  A
C1483      C1484   1.420       .  A
C1483     Br1492   1.910       .  S
C1484     Br1488   1.937       .  S
C1493      C1494   1.409       .  A
C1493      C1498   1.420       .  A
C1494      C1495   1.401       .  A
C1494     Br1506   1.920       .  S
C1495      C1496   1.412       .  A
C1495     Br1510   1.926       .  S
C1496      C1497   1.415       .  A
C1496      C1499   1.507       .  S
C1497      C1498   1.422       .  A
C1497     Br1505   1.928       .  S
C1498     Br1509   1.928       .  S
C1499      C1500   1.414       .  A
C1499      C1504   1.404       .  A
C1500      C1501   1.421       .  A
C1500     Br1511   1.931       .  S
C1501      C1502   1.423       .  A
C1501     Br1507   1.926   1_565  S
C1502      C1503   1.419       .  A
C1503      C1504   1.411       .  A
C1503     Br1512   1.911       .  S
C1504     Br1508   1.927       .  S
C1513      C1514   1.426       .  A
C1513      C1518   1.423       .  A
C1514      C1515   1.413       .  A
C1514     Br1526   1.908       .  S
C1515      C1516   1.407       .  A
C1515     Br1530   1.935       .  S
C1516      C1517   1.411       .  A
C1516      C1519   1.514       .  S
C1517      C1518   1.418       .  A
C1517     Br1525   1.930       .  S
C1518     Br1529   1.916   1_545  S
C1519      C1520   1.412       .  A
C1519      C1524   1.414       .  A
C1520      C1521   1.413       .  A
C1520     Br1531   1.935       .  S
C1521      C1522   1.426       .  A
C1521     Br1527   1.934       .  S
C1522      C1523   1.417       .  A
C1523      C1524   1.420       .  A
C1523     Br1532   1.918       .  S
C1524     Br1528   1.929       .  S
C1533      C1534   1.420       .  A
C1533      C1538   1.421       .  A
C1534      C1535   1.417       .  A
C1534     Br1546   1.918       .  S
C1535      C1536   1.412       .  A
C1535     Br1550   1.930       .  S
C1536      C1537   1.409       .  A
C1536      C1539   1.509       .  S
C1537      C1538   1.411       .  A
C1537     Br1545   1.931   1_545  S
C1538     Br1549   1.927   1_545  S
C1539      C1540   1.414   1_545  A
C1539      C1544   1.411       .  A
C1540      C1541   1.417       .  A
C1540     Br1551   1.929       .  S
C1541      C1542   1.416   1_565  A
C1541     Br1547   1.931       .  S
C1542      C1543   1.416       .  A
C1543      C1544   1.415       .  A
C1543     Br1552   1.911       .  S
C1544     Br1548   1.935       .  S
C1553      C1554   1.429       .  A
C1553      C1558   1.426       .  A
C1554      C1555   1.402       .  A
C1554     Br1566   1.948       .  S
C1555      C1556   1.407       .  A
C1555     Br1570   1.936       .  S
C1556      C1557   1.411       .  A
C1556      C1559   1.505       .  S
C1557      C1558   1.424       .  A
C1557     Br1565   1.927       .  S
C1558     Br1569   1.927       .  S
C1559      C1560   1.412       .  A
C1559      C1564   1.416       .  A
C1560      C1561   1.408       .  A
C1560     Br1571   1.923       .  S
C1561      C1562   1.409       .  A
C1561     Br1567   1.919       .  S
C1562      C1563   1.417       .  A
C1563      C1564   1.419       .  A
C1563     Br1572   1.912       .  S
C1564     Br1568   1.928       .  S
C1573      C1574   1.426       .  A
C1573      C1578   1.429       .  A
C1574      C1575   1.401       .  A
C1574     Br1586   1.923       .  S
C1575      C1576   1.398       .  A
C1575     Br1590   1.934       .  S
C1576      C1577   1.402       .  A
C1576      C1579   1.479       .  S
C1577      C1578   1.414       .  A
C1577     Br1585   1.929       .  S
C1578     Br1589   1.932       .  S
C1579      C1580   1.404       .  A
C1579      C1584   1.406       .  A
C1580      C1581   1.400       .  A
C1580     Br1591   1.942       .  S
C1581      C1582   1.426       .  A
C1581     Br1587   1.937       .  S
C1582      C1583   1.422       .  A
C1583      C1584   1.412       .  A
C1583     Br1592   1.935       .  S
C1584     Br1588   1.929       .  S
C1593      C1594   1.414       .  A
C1593      C1598   1.417       .  A
C1594      C1595   1.415       .  A
C1594     Br1606   1.926       .  S
C1595      C1596   1.411       .  A
C1595     Br1610   1.927       .  S
C1596      C1597   1.403       .  A
C1596      C1599   1.486       .  S
C1597      C1598   1.402       .  A
C1597     Br1605   1.937       .  S
C1598     Br1609   1.916       .  S
C1599      C1600   1.407       .  A
C1599      C1604   1.405       .  A
C1600      C1601   1.417       .  A
C1600     Br1611   1.931       .  S
C1601      C1602   1.423       .  A
C1601     Br1607   1.927       .  S
C1602      C1603   1.429       .  A
C1603      C1604   1.400       .  A
C1603     Br1612   1.944       .  S
C1604     Br1608   1.937       .  S
C1613      C1614   1.427       .  A
C1613      C1618   1.435       .  A
C1614      C1615   1.415       .  A
C1614     Br1626   1.933   1_545  S
C1615      C1616   1.405       .  A
C1615     Br1630   1.930       .  S
C1616      C1617   1.402       .  A
C1616      C1619   1.487       .  S
C1617      C1618   1.406       .  A
C1617     Br1625   1.940       .  S
C1618     Br1629   1.945       .  S
C1619      C1620   1.400       .  A
C1619      C1624   1.404       .  A
C1620      C1621   1.404       .  A
C1620     Br1631   1.929       .  S
C1621      C1622   1.419       .  A
C1621     Br1627   1.917       .  S
C1622      C1623   1.427       .  A
C1623      C1624   1.414       .  A
C1623     Br1632   1.935       .  S
C1624     Br1628   1.926       .  S
C1633      C1634   1.426       .  A
C1633      C1638   1.430       .  A
C1634      C1635   1.419       .  A
C1634     Br1646   1.920   1_545  S
C1635      C1636   1.407       .  A
C1635     Br1650   1.930       .  S
C1636      C1637   1.407       .  A
C1636      C1639   1.510       .  S
C1637      C1638   1.419       .  A
C1637     Br1645   1.934       .  S
C1638     Br1649   1.914       .  S
C1639      C1640   1.414   1_545  A
C1639      C1644   1.412       .  A
C1640      C1641   1.416       .  A
C1640     Br1651   1.925       .  S
C1641      C1642   1.417   1_565  A
C1641     Br1647   1.934       .  S
C1642      C1643   1.411       .  A
C1643      C1644   1.415       .  A
C1643     Br1652   1.921       .  S
C1644     Br1648   1.924       .  S
C1653      C1654   1.416       .  A
C1653      C1658   1.417   1_565  A
C1654      C1655   1.416       .  A
C1654     Br1666   1.926       .  S
C1655      C1656   1.418       .  A
C1655     Br1670   1.935       .  S
C1656      C1657   1.411   1_565  A
C1656      C1659   1.506       .  S
C1657      C1658   1.409       .  A
C1657     Br1665   1.932       .  S
C1658     Br1669   1.932       .  S
C1659      C1660   1.417       .  A
C1659      C1664   1.408       .  A
C1660      C1661   1.414       .  A
C1660     Br1671   1.928       .  S
C1661      C1662   1.414       .  A
C1661     Br1667   1.926       .  S
C1662      C1663   1.426       .  A
C1663      C1664   1.410       .  A
C1663     Br1672   1.936       .  S
C1664     Br1668   1.933       .  S
C1673      C1674   1.423       .  A
C1673      C1678   1.421       .  A
C1674      C1675   1.403       .  A
C1674     Br1686   1.932       .  S
C1675      C1676   1.400       .  A
C1675     Br1690   1.932       .  S
C1676      C1677   1.402       .  A
C1676      C1679   1.463       .  S
C1677      C1678   1.394       .  A
C1677     Br1685   1.927       .  S
C1678     Br1689   1.941       .  S
C1679      C1680   1.407       .  A
C1679      C1684   1.403       .  A
C1680      C1681   1.403       .  A
C1680     Br1691   1.926       .  S
C1681      C1682   1.405       .  A
C1681     Br1687   1.922       .  S
C1682      C1683   1.408       .  A
C1683      C1684   1.394       .  A
C1683     Br1692   1.925       .  S
C1684     Br1688   1.930       .  S
C1693      C1694   1.424       .  A
C1693      C1698   1.432       .  A
C1694      C1695   1.411       .  A
C1694     Br1706   1.935       .  S
C1695      C1696   1.405       .  A
C1695     Br1710   1.932       .  S
C1696      C1697   1.401       .  A
C1696      C1699   1.480       .  S
C1697      C1698   1.405       .  A
C1697     Br1705   1.939       .  S
C1698     Br1709   1.944       .  S
C1699      C1700   1.401       .  A
C1699      C1704   1.407       .  A
C1700      C1701   1.397       .  A
C1700     Br1711   1.934       .  S
C1701      C1702   1.414       .  A
C1701     Br1707   1.911       .  S
C1702      C1703   1.423       .  A
C1703      C1704   1.414       .  A
C1703     Br1712   1.931       .  S
C1704     Br1708   1.926       .  S
C1713      C1714   1.410       .  A
C1713      C1718   1.413       .  A
C1714      C1715   1.409       .  A
C1714     Br1726   1.927       .  S
C1715      C1716   1.410       .  A
C1715     Br1730   1.928       .  S
C1716      C1717   1.402       .  A
C1716      C1719   1.474       .  S
C1717      C1718   1.398       .  A
C1717     Br1725   1.934       .  S
C1718     Br1729   1.919       .  S
C1719      C1720   1.401       .  A
C1719      C1724   1.401       .  A
C1720      C1721   1.409       .  A
C1720     Br1731   1.933       .  S
C1721      C1722   1.427       .  A
C1721     Br1727   1.930       .  S
C1722      C1723   1.426       .  A
C1723      C1724   1.400       .  A
C1723     Br1732   1.934       .  S
C1724     Br1728   1.933       .  S
C1733      C1734   1.409       .  A
C1733      C1738   1.412       .  A
C1734      C1735   1.406       .  A
C1734     Br1746   1.923       .  S
C1735      C1736   1.408       .  A
C1735     Br1750   1.928       .  S
C1736      C1737   1.402       .  A
C1736      C1739   1.472       .  S
C1737      C1738   1.400       .  A
C1737     Br1745   1.931       .  S
C1738     Br1749   1.923       .  S
C1739      C1740   1.405       .  A
C1739      C1744   1.402       .  A
C1740      C1741   1.400       .  A
C1740     Br1751   1.933       .  S
C1741      C1742   1.419       .  A
C1741     Br1747   1.933       .  S
C1742      C1743   1.424       .  A
C1743      C1744   1.406       .  A
C1743     Br1752   1.934       .  S
C1744     Br1748   1.931       .  S
C1753      C1754   1.421       .  A
C1753      C1758   1.418       .  A
C1754      C1755   1.421       .  A
C1754     Br1766   1.920       .  S
C1755      C1756   1.413       .  A
C1755     Br1770   1.929       .  S
C1756      C1757   1.408       .  A
C1756      C1759   1.508       .  S
C1757      C1758   1.411       .  A
C1757     Br1765   1.932       .  S
C1758     Br1769   1.917       .  S
C1759      C1760   1.409       .  A
C1759      C1764   1.409       .  A
C1760      C1761   1.415       .  A
C1760     Br1771   1.933       .  S
C1761      C1762   1.421       .  A
C1761     Br1767   1.914       .  S
C1762      C1763   1.425       .  A
C1763      C1764   1.417       .  A
C1763     Br1772   1.923       .  S
C1764     Br1768   1.933       .  S
C1773      C1774   1.421       .  A
C1773      C1778   1.407       .  A
C1774      C1775   1.418       .  A
C1774     Br1786   1.931       .  S
C1775      C1776   1.413       .  A
C1775     Br1790   1.935       .  S
C1776      C1777   1.415       .  A
C1776      C1779   1.510       .  S
C1777      C1778   1.412       .  A
C1777     Br1785   1.924       .  S
C1778     Br1789   1.919       .  S
C1779      C1780   1.410       .  A
C1779      C1784   1.408       .  A
C1780      C1781   1.417       .  A
C1780     Br1791   1.930       .  S
C1781      C1782   1.422       .  A
C1781     Br1787   1.927       .  S
C1782      C1783   1.423       .  A
C1783      C1784   1.414       .  A
C1783     Br1792   1.906       .  S
C1784     Br1788   1.935       .  S
C1793      C1794   1.429       .  A
C1793      C1798   1.425       .  A
C1794      C1795   1.416       .  A
C1794     Br1806   1.910       .  S
C1795      C1796   1.406       .  A
C1795     Br1810   1.937       .  S
C1796      C1797   1.408       .  A
C1796      C1799   1.508       .  S
C1797      C1798   1.417       .  A
C1797     Br1805   1.932       .  S
C1798     Br1809   1.920       .  S
C1799      C1800   1.414       .  A
C1799      C1804   1.410       .  A
C1800      C1801   1.419       .  A
C1800     Br1811   1.929       .  S
C1801      C1802   1.420       .  A
C1801     Br1807   1.931       .  S
C1802      C1803   1.426       .  A
C1803      C1804   1.411       .  A
C1803     Br1812   1.939       .  S
C1804     Br1808   1.936       .  S
C1813      C1814   1.425       .  A
C1813      C1818   1.430       .  A
C1814      C1815   1.411       .  A
C1814     Br1826   1.918       .  S
C1815      C1816   1.402       .  A
C1815     Br1830   1.932       .  S
C1816      C1817   1.405       .  A
C1816      C1819   1.496       .  S
C1817      C1818   1.414       .  A
C1817     Br1825   1.937       .  S
C1818     Br1829   1.915       .  S
C1819      C1820   1.407       .  A
C1819      C1824   1.411       .  A
C1820      C1821   1.408       .  A
C1820     Br1831   1.933       .  S
C1821      C1822   1.414       .  A
C1821     Br1827   1.912       .  S
C1822      C1823   1.415       .  A
C1823      C1824   1.414       .  A
C1823     Br1832   1.925       .  S
C1824     Br1828   1.930       .  S
C1833      C1834   1.415       .  A
C1833      C1838   1.410       .  A
C1834      C1835   1.416       .  A
C1834     Br1846   1.928       .  S
C1835      C1836   1.416       .  A
C1835     Br1850   1.931       .  S
C1836      C1837   1.423       .  A
C1836      C1839   1.520       .  S
C1837      C1838   1.418       .  A
C1837     Br1845   1.931       .  S
C1838     Br1849   1.928       .  S
C1839      C1840   1.416       .  A
C1839      C1844   1.410       .  A
C1840      C1841   1.420       .  A
C1840     Br1851   1.935       .  S
C1841      C1842   1.424       .  A
C1841     Br1847   1.927       .  S
C1842      C1843   1.421       .  A
C1843      C1844   1.413       .  A
C1843     Br1852   1.912       .  S
C1844     Br1848   1.931       .  S
C1853      C1854   1.415       .  A
C1853      C1858   1.415       .  A
C1854      C1855   1.413       .  A
C1854     Br1866   1.924       .  S
C1855      C1856   1.410       .  A
C1855     Br1870   1.929       .  S
C1856      C1857   1.411       .  A
C1856      C1859   1.499       .  S
C1857      C1858   1.411       .  A
C1857     Br1865   1.929       .  S
C1858     Br1869   1.932       .  S
C1859      C1860   1.406       .  A
C1859      C1864   1.410       .  A
C1860      C1861   1.409       .  A
C1860     Br1871   1.930       .  S
C1861      C1862   1.421       .  A
C1861     Br1867   1.927       .  S
C1862      C1863   1.422       .  A
C1863      C1864   1.415       .  A
C1863     Br1872   1.918       .  S
C1864     Br1868   1.934       .  S
C1873      C1874   1.418       .  A
C1873      C1878   1.426       .  A
C1874      C1875   1.413       .  A
C1874     Br1886   1.931       .  S
C1875      C1876   1.410       .  A
C1875     Br1890   1.930       .  S
C1876      C1877   1.404       .  A
C1876      C1879   1.484       .  S
C1877      C1878   1.398       .  A
C1877     Br1885   1.939       .  S
C1878     Br1889   1.931       .  S
C1879      C1880   1.411       .  A
C1879      C1884   1.406       .  A
C1880      C1881   1.410       .  A
C1880     Br1891   1.929       .  S
C1881      C1882   1.413       .  A
C1881     Br1887   1.928       .  S
C1882      C1883   1.415       .  A
C1883      C1884   1.402       .  A
C1883     Br1892   1.915       .  S
C1884     Br1888   1.937       .  S
C1893      C1894   1.417       .  A
C1893      C1898   1.417       .  A
C1894      C1895   1.392       .  A
C1894     Br1906   1.922       .  S
C1895      C1896   1.401       .  A
C1895     Br1910   1.933       .  S
C1896      C1897   1.405       .  A
C1896      C1899   1.473       .  S
C1897      C1898   1.407       .  A
C1897     Br1905   1.929       .  S
C1898     Br1909   1.925       .  S
C1899      C1900   1.402       .  A
C1899      C1904   1.406       .  A
C1900      C1901   1.405       .  A
C1900     Br1911   1.933       .  S
C1901      C1902   1.420       .  A
C1901     Br1907   1.928       .  S
C1902      C1903   1.421       .  A
C1903      C1904   1.400       .  A
C1903     Br1912   1.931       .  S
C1904     Br1908   1.938       .  S
C1913      C1914   1.416       .  A
C1913      C1918   1.414       .  A
C1914      C1915   1.405       .  A
C1914     Br1926   1.919   1_554  S
C1915      C1916   1.407       .  A
C1915     Br1930   1.932       .  S
C1916      C1917   1.411       .  A
C1916      C1919   1.493       .  S
C1917      C1918   1.413       .  A
C1917     Br1925   1.927       .  S
C1918     Br1929   1.929       .  S
C1919      C1920   1.412       .  A
C1919      C1924   1.406       .  A
C1920      C1921   1.418       .  A
C1920     Br1931   1.928       .  S
C1921      C1922   1.419       .  A
C1921     Br1927   1.926       .  S
C1922      C1923   1.408       .  A
C1923      C1924   1.398       .  A
C1923     Br1932   1.915       .  S
C1924     Br1928   1.926       .  S
C1933      C1934   1.420       .  A
C1933      C1938   1.425   1_554  A
C1934      C1935   1.420       .  A
C1934     Br1946   1.916       .  S
C1935      C1936   1.416       .  A
C1935     Br1950   1.933       .  S
C1936      C1937   1.411   1_554  A
C1936      C1939   1.523       .  S
C1937      C1938   1.421       .  A
C1937     Br1945   1.933       .  S
C1938     Br1949   1.924       .  S
C1939      C1940   1.420       .  A
C1939      C1944   1.410       .  A
C1940      C1941   1.427       .  A
C1940     Br1951   1.929       .  S
C1941      C1942   1.421       .  A
C1941     Br1947   1.928       .  S
C1942      C1943   1.423       .  A
C1943      C1944   1.410       .  A
C1943     Br1952   1.931       .  S
C1944     Br1948   1.930   1_554  S
C1953      C1954   1.417   1_556  A
C1953      C1958   1.410       .  A
C1954      C1955   1.413       .  A
C1954     Br1966   1.928       .  S
C1955      C1956   1.412   1_554  A
C1955     Br1970   1.934       .  S
C1956      C1957   1.411       .  A
C1956      C1959   1.496       .  S
C1957      C1958   1.407       .  A
C1957     Br1965   1.931       .  S
C1958     Br1969   1.919       .  S
C1959      C1960   1.405   1_556  A
C1959      C1964   1.410       .  A
C1960      C1961   1.407       .  A
C1960     Br1971   1.933       .  S
C1961      C1962   1.419   1_554  A
C1961     Br1967   1.923       .  S
C1962      C1963   1.417       .  A
C1963      C1964   1.411       .  A
C1963     Br1972   1.917       .  S
C1964     Br1968   1.932       .  S
C1973      C1974   1.424       .  A
C1973      C1978   1.417       .  A
C1974      C1975   1.421       .  A
C1974     Br1986   1.934       .  S
C1975      C1976   1.416       .  A
C1975     Br1990   1.934       .  S
C1976      C1977   1.409       .  A
C1976      C1979   1.511       .  S
C1977      C1978   1.406       .  A
C1977     Br1985   1.927       .  S
C1978     Br1989   1.921       .  S
C1979      C1980   1.413       .  A
C1979      C1984   1.408       .  A
C1980      C1981   1.416       .  A
C1980     Br1991   1.936       .  S
C1981      C1982   1.423       .  A
C1981     Br1987   1.910       .  S
C1982      C1983   1.423       .  A
C1983      C1984   1.412       .  A
C1983     Br1992   1.922       .  S
C1984     Br1988   1.931       .  S
C1993      C1994   1.421       .  A
C1993      C1998   1.423       .  A
C1994      C1995   1.415       .  A
C1994     Br2006   1.930       .  S
C1995      C1996   1.409       .  A
C1995     Br2010   1.931       .  S
C1996      C1997   1.407       .  A
C1996      C1999   1.496       .  S
C1997      C1998   1.409       .  A
C1997     Br2005   1.935       .  S
C1998     Br2009   1.929       .  S
C1999      C2000   1.403       .  A
C1999      C2004   1.405       .  A
C2000      C2001   1.412       .  A
C2000     Br2011   1.931       .  S
C2001      C2002   1.424       .  A
C2001     Br2007   1.913       .  S
C2002      C2003   1.425       .  A
C2003      C2004   1.411       .  A
C2003     Br2012   1.917       .  S
C2004     Br2008   1.934       .  S
C2013      C2014   1.420       .  A
C2013      C2018   1.421       .  A
C2014      C2015   1.412       .  A
C2014     Br2026   1.913       .  S
C2015      C2016   1.410       .  A
C2015     Br2030   1.932       .  S
C2016      C2017   1.405       .  A
C2016      C2019   1.499       .  S
C2017      C2018   1.408       .  A
C2017     Br2025   1.937       .  S
C2018     Br2029   1.913       .  S
C2019      C2020   1.414       .  A
C2019      C2024   1.413       .  A
C2020      C2021   1.412       .  A
C2020     Br2031   1.932       .  S
C2021      C2022   1.410       .  A
C2021     Br2027   1.926       .  S
C2022      C2023   1.417       .  A
C2023      C2024   1.411       .  A
C2023     Br2032   1.931       .  S
C2024     Br2028   1.935       .  S
C2033      C2034   1.414       .  A
C2033      C2038   1.409       .  A
C2034      C2035   1.408       .  A
C2034     Br2046   1.927       .  S
C2035      C2036   1.407       .  A
C2035     Br2050   1.924       .  S
C2036      C2037   1.407       .  A
C2036      C2039   1.486       .  S
C2037      C2038   1.407       .  A
C2037     Br2045   1.931       .  S
C2038     Br2049   1.909       .  S
C2039      C2040   1.402       .  A
C2039      C2044   1.404       .  A
C2040      C2041   1.406       .  A
C2040     Br2051   1.935       .  S
C2041      C2042   1.422       .  A
C2041     Br2047   1.919       .  S
C2042      C2043   1.422       .  A
C2043      C2044   1.410       .  A
C2043     Br2052   1.914       .  S
C2044     Br2048   1.934       .  S
C2053      C2054   1.417       .  A
C2053      C2058   1.418       .  A
C2054      C2055   1.419       .  A
C2054     Br2066   1.915       .  S
C2055      C2056   1.412       .  A
C2055     Br2070   1.932       .  S
C2056      C2057   1.413       .  A
C2056      C2059   1.511       .  S
C2057      C2058   1.415       .  A
C2057     Br2065   1.931       .  S
C2058     Br2069   1.931       .  S
C2059      C2060   1.407       .  A
C2059      C2064   1.411       .  A
C2060      C2061   1.413       .  A
C2060     Br2071   1.933       .  S
C2061      C2062   1.423       .  A
C2061     Br2067   1.923       .  S
C2062      C2063   1.426       .  A
C2063      C2064   1.422       .  A
C2063     Br2072   1.914       .  S
C2064     Br2068   1.935       .  S
C2073      C2074   1.424       .  A
C2073      C2078   1.430       .  A
C2074      C2075   1.415       .  A
C2074     Br2086   1.920       .  S
C2075      C2076   1.407       .  A
C2075     Br2090   1.932       .  S
C2076      C2077   1.410       .  A
C2076      C2079   1.511       .  S
C2077      C2078   1.421       .  A
C2077     Br2085   1.936       .  S
C2078     Br2089   1.917       .  S
C2079      C2080   1.412       .  A
C2079      C2084   1.414       .  A
C2080      C2081   1.413       .  A
C2080     Br2091   1.921       .  S
C2081      C2082   1.413       .  A
C2081     Br2087   1.930       .  S
C2082      C2083   1.416       .  A
C2083      C2084   1.417       .  A
C2083     Br2092   1.931       .  S
C2084     Br2088   1.929       .  S
C2093      C2094   1.425       .  A
C2093      C2098   1.419       .  A
C2094      C2095   1.411       .  A
C2094     Br2106   1.928       .  S
C2095      C2096   1.404       .  A
C2095     Br2110   1.932       .  S
C2096      C2097   1.407       .  A
C2096      C2099   1.490       .  S
C2097      C2098   1.407       .  A
C2097     Br2105   1.926       .  S
C2098     Br2109   1.933       .  S
C2099      C2100   1.412       .  A
C2099      C2104   1.405       .  A
C2100      C2101   1.412       .  A
C2100     Br2111   1.925       .  S
C2101      C2102   1.407       .  A
C2101     Br2107   1.920       .  S
C2102      C2103   1.414       .  A
C2103      C2104   1.407       .  A
C2103     Br2112   1.921       .  S
C2104     Br2108   1.930       .  S
C2113      C2114   1.415       .  A
C2113      C2118   1.416       .  A
C2114      C2115   1.412       .  A
C2114     Br2126   1.930       .  S
C2115      C2116   1.411       .  A
C2115     Br2130   1.926       .  S
C2116      C2117   1.406       .  A
C2116      C2119   1.485       .  S
C2117      C2118   1.396       .  A
C2117     Br2125   1.934       .  S
C2118     Br2129   1.923       .  S
C2119      C2120   1.407       .  A
C2119      C2124   1.403       .  A
C2120      C2121   1.411       .  A
C2120     Br2131   1.932       .  S
C2121      C2122   1.420       .  A
C2121     Br2127   1.931       .  S
C2122      C2123   1.419       .  A
C2123      C2124   1.403       .  A
C2123     Br2132   1.924       .  S
C2124     Br2128   1.928       .  S
C2133      C2134   1.411       .  A
C2133      C2138   1.407       .  A
C2134      C2135   1.402       .  A
C2134     Br2146   1.921   1_455  S
C2135      C2136   1.404       .  A
C2135     Br2150   1.931   1_455  S
C2136      C2137   1.407       .  A
C2136      C2139   1.472       .  S
C2137      C2138   1.404       .  A
C2137     Br2145   1.928       .  S
C2138     Br2149   1.918       .  S
C2139      C2140   1.404       .  A
C2139      C2144   1.405       .  A
C2140      C2141   1.408       .  A
C2140     Br2151   1.932       .  S
C2141      C2142   1.423       .  A
C2141     Br2147   1.936       .  S
C2142      C2143   1.418       .  A
C2143      C2144   1.399       .  A
C2143     Br2152   1.934       .  S
C2144     Br2148   1.937       .  S
C2153      C2154   1.425       .  A
C2153      C2158   1.427       .  A
C2154      C2155   1.410       .  A
C2154     Br2166   1.915   1_655  S
C2155      C2156   1.402       .  A
C2155     Br2170   1.934   1_655  S
C2156      C2157   1.405       .  A
C2156      C2159   1.493       .  S
C2157      C2158   1.412       .  A
C2157     Br2165   1.939       .  S
C2158     Br2169   1.912       .  S
C2159      C2160   1.413   1_655  A
C2159      C2164   1.409       .  A
C2160      C2161   1.411       .  A
C2160     Br2171   1.932       .  S
C2161      C2162   1.416   1_455  A
C2161     Br2167   1.934       .  S
C2162      C2163   1.414       .  A
C2163      C2164   1.406       .  A
C2163     Br2172   1.930       .  S
C2164     Br2168   1.929       .  S
C2173      C2174   1.423       .  A
C2173      C2178   1.426       .  A
C2174      C2175   1.416       .  A
C2174     Br2186   1.929       .  S
C2175      C2176   1.410       .  A
C2175     Br2190   1.931       .  S
C2176      C2177   1.412       .  A
C2176      C2179   1.512       .  S
C2177      C2178   1.425       .  A
C2177     Br2185   1.930       .  S
C2178     Br2189   1.921       .  S
C2179      C2180   1.415       .  A
C2179      C2184   1.410       .  A
C2180      C2181   1.422       .  A
C2180     Br2191   1.925       .  S
C2181      C2182   1.417       .  A
C2181     Br2187   1.928       .  S
C2182      C2183   1.407       .  A
C2183      C2184   1.405       .  A
C2183     Br2192   1.912       .  S
C2184     Br2188   1.914       .  S
C2193      C2194   1.426       .  A
C2193      C2198   1.421       .  A
C2194      C2195   1.413       .  A
C2194     Br2206   1.908       .  S
C2195      C2196   1.406       .  A
C2195     Br2210   1.938       .  S
C2196      C2197   1.406       .  A
C2196      C2199   1.498       .  S
C2197      C2198   1.410       .  A
C2197     Br2205   1.932       .  S
C2198     Br2209   1.920       .  S
C2199      C2200   1.409       .  A
C2199      C2204   1.413       .  A
C2200      C2201   1.410       .  A
C2200     Br2211   1.935       .  S
C2201      C2202   1.416       .  A
C2201     Br2207   1.919       .  S
C2202      C2203   1.416       .  A
C2203      C2204   1.412       .  A
C2203     Br2212   1.929       .  S
C2204     Br2208   1.929       .  S
C2213      C2214   1.429       .  A
C2213      C2218   1.423       .  A
C2214      C2215   1.412       .  A
C2214     Br2226   1.939       .  S
C2215      C2216   1.405       .  A
C2215     Br2230   1.934       .  S
C2216      C2217   1.403       .  A
C2216      C2219   1.484       .  S
C2217      C2218   1.406       .  A
C2217     Br2225   1.935       .  S
C2218     Br2229   1.933       .  S
C2219      C2220   1.407       .  A
C2219      C2224   1.408       .  A
C2220      C2221   1.406       .  A
C2220     Br2231   1.931       .  S
C2221      C2222   1.413       .  A
C2221     Br2227   1.921       .  S
C2222      C2223   1.407       .  A
C2223      C2224   1.408       .  A
C2223     Br2232   1.911       .  S
C2224     Br2228   1.929       .  S
C2233      C2234   1.420       .  A
C2233      C2238   1.419       .  A
C2234      C2235   1.408       .  A
C2234     Br2246   1.930       .  S
C2235      C2236   1.406       .  A
C2235     Br2250   1.933       .  S
C2236      C2237   1.403       .  A
C2236      C2239   1.481       .  S
C2237      C2238   1.404       .  A
C2237     Br2245   1.931       .  S
C2238     Br2249   1.929       .  S
C2239      C2240   1.411       .  A
C2239      C2244   1.405       .  A
C2240      C2241   1.406       .  A
C2240     Br2251   1.928       .  S
C2241      C2242   1.403       .  A
C2241     Br2247   1.920       .  S
C2242      C2243   1.413       .  A
C2243      C2244   1.406       .  A
C2243     Br2252   1.921       .  S
C2244     Br2248   1.931       .  S
C2253      C2254   1.415       .  A
C2253      C2258   1.420       .  A
C2254      C2255   1.414       .  A
C2254     Br2266   1.924       .  S
C2255      C2256   1.411       .  A
C2255     Br2270   1.924       .  S
C2256      C2257   1.414       .  A
C2256      C2259   1.512       .  S
C2257      C2258   1.420       .  A
C2257     Br2265   1.931       .  S
C2258     Br2269   1.931       .  S
C2259      C2260   1.408       .  A
C2259      C2264   1.406       .  A
C2260      C2261   1.420       .  A
C2260     Br2271   1.933       .  S
C2261      C2262   1.429       .  A
C2261     Br2267   1.913       .  S
C2262      C2263   1.425       .  A
C2263      C2264   1.415       .  A
C2263     Br2272   1.915   1_655  S
C2264     Br2268   1.930       .  S
C2273      C2274   1.418       .  A
C2273      C2278   1.418       .  A
C2274      C2275   1.416       .  A
C2274     Br2286   1.933       .  S
C2275      C2276   1.413       .  A
C2275     Br2290   1.927       .  S
C2276      C2277   1.409       .  A
C2276      C2279   1.507       .  S
C2277      C2278   1.415       .  A
C2277     Br2285   1.932       .  S
C2278     Br2289   1.917       .  S
C2279      C2280   1.403       .  A
C2279      C2284   1.406       .  A
C2280      C2281   1.413       .  A
C2280     Br2291   1.930       .  S
C2281      C2282   1.425       .  A
C2281     Br2287   1.916   1_655  S
C2282      C2283   1.435       .  A
C2283      C2284   1.421       .  A
C2283     Br2292   1.913       .  S
C2284     Br2288   1.936       .  S
C2293      C2294   1.418       .  A
C2293      C2298   1.419       .  A
C2294      C2295   1.415       .  A
C2294     Br2306   1.933       .  S
C2295      C2296   1.414       .  A
C2295     Br2310   1.922       .  S
C2296      C2297   1.413       .  A
C2296      C2299   1.514       .  S
C2297      C2298   1.418       .  A
C2297     Br2305   1.930       .  S
C2298     Br2309   1.930       .  S
C2299      C2300   1.408       .  A
C2299      C2304   1.407       .  A
C2300      C2301   1.417       .  A
C2300     Br2311   1.928       .  S
C2301      C2302   1.424       .  A
C2301     Br2307   1.925       .  S
C2302      C2303   1.438       .  A
C2303      C2304   1.421       .  A
C2303     Br2312   1.925       .  S
C2304     Br2308   1.936       .  S
C2313      C2314   1.424       .  A
C2313      C2318   1.420       .  A
C2314      C2315   1.420       .  A
C2314     Br2326   1.925       .  S
C2315      C2316   1.412       .  A
C2315     Br2330   1.931       .  S
C2316      C2317   1.410       .  A
C2316      C2319   1.515       .  S
C2317      C2318   1.413       .  A
C2317     Br2325   1.933       .  S
C2318     Br2329   1.912       .  S
C2319      C2320   1.413       .  A
C2319      C2324   1.418       .  A
C2320      C2321   1.407       .  A
C2320     Br2331   1.935       .  S
C2321      C2322   1.418       .  A
C2321     Br2327   1.936       .  S
C2322      C2323   1.420       .  A
C2323      C2324   1.423       .  A
C2323     Br2332   1.927       .  S
C2324     Br2328   1.928       .  S
C2333      C2334   1.420       .  A
C2333      C2338   1.422       .  A
C2334      C2335   1.405       .  A
C2334     Br2346   1.921       .  S
C2335      C2336   1.403       .  A
C2335     Br2350   1.932       .  S
C2336      C2337   1.407       .  A
C2336      C2339   1.492       .  S
C2337      C2338   1.416       .  A
C2337     Br2345   1.930       .  S
C2338     Br2349   1.917       .  S
C2339      C2340   1.412       .  A
C2339      C2344   1.405       .  A
C2340      C2341   1.415       .  A
C2340     Br2351   1.926       .  S
C2341      C2342   1.414       .  A
C2341     Br2347   1.925       .  S
C2342      C2343   1.411       .  A
C2343      C2344   1.405       .  A
C2343     Br2352   1.916       .  S
C2344     Br2348   1.929       .  S
C2353      C2354   1.427       .  A
C2353      C2358   1.424       .  A
C2354      C2355   1.415       .  A
C2354     Br2366   1.909       .  S
C2355      C2356   1.406       .  A
C2355     Br2370   1.937       .  S
C2356      C2357   1.405       .  A
C2356      C2359   1.501       .  S
C2357      C2358   1.414       .  A
C2357     Br2365   1.932       .  S
C2358     Br2369   1.918       .  S
C2359      C2360   1.405       .  A
C2359      C2364   1.410       .  A
C2360      C2361   1.409       .  A
C2360     Br2371   1.933       .  S
C2361      C2362   1.424       .  A
C2361     Br2367   1.925       .  S
C2362      C2363   1.421       .  A
C2363      C2364   1.418       .  A
C2363     Br2372   1.919       .  S
C2364     Br2368   1.931       .  S
C2373      C2374   1.424       .  A
C2373      C2378   1.426       .  A
C2374      C2375   1.410       .  A
C2374     Br2386   1.919       .  S
C2375      C2376   1.404       .  A
C2375     Br2390   1.934       .  S
C2376      C2377   1.409       .  A
C2376      C2379   1.500       .  S
C2377      C2378   1.417       .  A
C2377     Br2385   1.935       .  S
C2378     Br2389   1.916       .  S
C2379      C2380   1.414       .  A
C2379      C2384   1.410       .  A
C2380      C2381   1.414       .  A
C2380     Br2391   1.931       .  S
C2381      C2382   1.414       .  A
C2381     Br2387   1.926       .  S
C2382      C2383   1.411       .  A
C2383      C2384   1.407       .  A
C2383     Br2392   1.920       .  S
C2384     Br2388   1.926       .  S
C2393      C2394   1.423       .  A
C2393      C2398   1.426       .  A
C2394      C2395   1.412       .  A
C2394     Br2406   1.915       .  S
C2395      C2396   1.410       .  A
C2395     Br2410   1.933       .  S
C2396      C2397   1.416       .  A
C2396      C2399   1.520       .  S
C2397      C2398   1.422       .  A
C2397     Br2405   1.934       .  S
C2398     Br2409   1.914       .  S
C2399      C2400   1.415       .  A
C2399      C2404   1.409       .  A
C2400      C2401   1.421       .  A
C2400     Br2411   1.932       .  S
C2401      C2402   1.427       .  A
C2401     Br2407   1.931       .  S
C2402      C2403   1.437       .  A
C2403      C2404   1.418       .  A
C2403     Br2412   1.940       .  S
C2404     Br2408   1.938       .  S
C2413      C2414   1.429       .  A
C2413      C2418   1.425       .  A
C2414      C2415   1.409       .  A
C2414     Br2426   1.936       .  S
C2415      C2416   1.402       .  A
C2415     Br2430   1.934       .  S
C2416      C2417   1.402       .  A
C2416      C2419   1.472       .  S
C2417      C2418   1.399       .  A
C2417     Br2425   1.936       .  S
C2418     Br2429   1.942       .  S
C2419      C2420   1.404       .  A
C2419      C2424   1.409       .  A
C2420      C2421   1.401       .  A
C2420     Br2431   1.934       .  S
C2421      C2422   1.415       .  A
C2421     Br2427   1.923       .  S
C2422      C2423   1.406       .  A
C2423      C2424   1.403       .  A
C2423     Br2432   1.924       .  S
C2424     Br2428   1.928       .  S
C2433      C2434   1.410       .  A
C2433      C2438   1.408       .  A
C2434      C2435   1.404       .  A
C2434     Br2446   1.927       .  S
C2435      C2436   1.406       .  A
C2435     Br2450   1.927       .  S
C2436      C2437   1.404       .  A
C2436      C2439   1.461       .  S
C2437      C2438   1.390       .  A
C2437     Br2445   1.939       .  S
C2438     Br2449   1.922   1_556  S
C2439      C2440   1.399       .  A
C2439      C2444   1.397       .  A
C2440      C2441   1.401       .  A
C2440     Br2451   1.935       .  S
C2441      C2442   1.425       .  A
C2441     Br2447   1.934       .  S
C2442      C2443   1.430       .  A
C2443      C2444   1.396       .  A
C2443     Br2452   1.948       .  S
C2444     Br2448   1.925       .  S
C2453      C2454   1.423       .  A
C2453      C2458   1.430       .  A
C2454      C2455   1.416       .  A
C2454     Br2466   1.929       .  S
C2455      C2456   1.408       .  A
C2455     Br2470   1.928       .  S
C2456      C2457   1.400       .  A
C2456      C2459   1.491       .  S
C2457      C2458   1.395       .  A
C2457     Br2465   1.916       .  S
C2458     Br2469   1.947       .  S
C2459      C2460   1.407       .  A
C2459      C2464   1.415       .  A
C2460      C2461   1.405       .  A
C2460     Br2471   1.930       .  S
C2461      C2462   1.411       .  A
C2461     Br2467   1.924       .  S
C2462      C2463   1.409       .  A
C2463      C2464   1.414       .  A
C2463     Br2472   1.925       .  S
C2464     Br2468   1.928       .  S
C2473      C2474   1.430       .  A
C2473      C2478   1.422       .  A
C2474      C2475   1.416       .  A
C2474     Br2486   1.937       .  S
C2475      C2476   1.409       .  A
C2475     Br2490   1.934       .  S
C2476      C2477   1.411       .  A
C2476      C2479   1.509       .  S
C2477      C2478   1.417       .  A
C2477     Br2485   1.930       .  S
C2478     Br2489   1.929       .  S
C2479      C2480   1.406       .  A
C2479      C2484   1.408       .  A
C2480      C2481   1.415       .  A
C2480     Br2491   1.932       .  S
C2481      C2482   1.425       .  A
C2481     Br2487   1.918       .  S
C2482      C2483   1.429       .  A
C2483      C2484   1.420       .  A
C2483     Br2492   1.913       .  S
C2484     Br2488   1.933       .  S
C2493      C2494   1.427       .  A
C2493      C2498   1.413       .  A
C2494      C2495   1.415       .  A
C2494     Br2506   1.923       .  S
C2495      C2496   1.408       .  A
C2495     Br2510   1.925       .  S
C2496      C2497   1.409       .  A
C2496      C2499   1.504       .  S
C2497      C2498   1.412       .  A
C2497     Br2505   1.923       .  S
C2498     Br2509   1.917       .  S
C2499      C2500   1.410       .  A
C2499      C2504   1.404       .  A
C2500      C2501   1.417       .  A
C2500     Br2511   1.934       .  S
C2501      C2502   1.425       .  A
C2501     Br2507   1.929       .  S
C2502      C2503   1.429       .  A
C2503      C2504   1.418       .  A
C2503     Br2512   1.931       .  S
C2504     Br2508   1.931       .  S
C2513      C2514   1.424       .  A
C2513      C2518   1.423       .  A
C2514      C2515   1.416       .  A
C2514     Br2526   1.928       .  S
C2515      C2516   1.409       .  A
C2515     Br2530   1.934       .  S
C2516      C2517   1.408       .  A
C2516      C2519   1.503       .  S
C2517      C2518   1.415       .  A
C2517     Br2525   1.926       .  S
C2518     Br2529   1.933       .  S
C2519      C2520   1.410       .  A
C2519      C2524   1.409       .  A
C2520      C2521   1.413   1_556  A
C2520     Br2531   1.922   1_556  S
C2521      C2522   1.408   1_554  A
C2521     Br2527   1.914       .  S
C2522      C2523   1.432       .  A
C2523      C2524   1.417       .  A
C2523     Br2532   1.928       .  S
C2524     Br2528   1.929       .  S
C2533      C2534   1.425       .  A
C2533      C2538   1.419       .  A
C2534      C2535   1.417       .  A
C2534     Br2546   1.921       .  S
C2535      C2536   1.409       .  A
C2535     Br2550   1.934       .  S
C2536      C2537   1.411       .  A
C2536      C2539   1.510       .  S
C2537      C2538   1.416       .  A
C2537     Br2545   1.932       .  S
C2538     Br2549   1.915       .  S
C2539      C2540   1.415       .  A
C2539      C2544   1.411       .  A
C2540      C2541   1.420       .  A
C2540     Br2551   1.927       .  S
C2541      C2542   1.417       .  A
C2541     Br2547   1.924       .  S
C2542      C2543   1.413       .  A
C2543      C2544   1.409       .  A
C2543     Br2552   1.917       .  S
C2544     Br2548   1.928       .  S
C2553      C2554   1.421       .  A
C2553      C2558   1.415       .  A
C2554      C2555   1.418       .  A
C2554     Br2566   1.922       .  S
C2555      C2556   1.409       .  A
C2555     Br2570   1.930       .  S
C2556      C2557   1.403       .  A
C2556      C2559   1.496       .  S
C2557      C2558   1.407       .  A
C2557     Br2565   1.925       .  S
C2558     Br2569   1.920       .  S
C2559      C2560   1.404       .  A
C2559      C2564   1.404       .  A
C2560      C2561   1.416       .  A
C2560     Br2571   1.934       .  S
C2561      C2562   1.428       .  A
C2561     Br2567   1.915       .  S
C2562      C2563   1.422       .  A
C2563      C2564   1.409       .  A
C2563     Br2572   1.923       .  S
C2564     Br2568   1.931       .  S
C2573      C2574   1.412       .  A
C2573      C2578   1.416       .  A
C2574      C2575   1.408       .  A
C2574     Br2586   1.913       .  S
C2575      C2576   1.409       .  A
C2575     Br2590   1.926       .  S
C2576      C2577   1.414       .  A
C2576      C2579   1.504       .  S
C2577      C2578   1.416       .  A
C2577     Br2585   1.926       .  S
C2578     Br2589   1.933       .  S
C2579      C2580   1.405       .  A
C2579      C2584   1.405       .  A
C2580      C2581   1.416       .  A
C2580     Br2591   1.932       .  S
C2581      C2582   1.426       .  A
C2581     Br2587   1.917       .  S
C2582      C2583   1.432       .  A
C2583      C2584   1.417       .  A
C2583     Br2592   1.916       .  S
C2584     Br2588   1.938       .  S
C2593      C2594   1.424       .  A
C2593      C2598   1.421       .  A
C2594      C2595   1.412       .  A
C2594     Br2606   1.932       .  S
C2595      C2596   1.406       .  A
C2595     Br2610   1.931       .  S
C2596      C2597   1.403       .  A
C2596      C2599   1.482       .  S
C2597      C2598   1.402       .  A
C2597     Br2605   1.932       .  S
C2598     Br2609   1.934       .  S
C2599      C2600   1.410       .  A
C2599      C2604   1.406       .  A
C2600      C2601   1.407       .  A
C2600     Br2611   1.925       .  S
C2601      C2602   1.406       .  A
C2601     Br2607   1.921       .  S
C2602      C2603   1.413       .  A
C2603      C2604   1.405       .  A
C2603     Br2612   1.926       .  S
C2604     Br2608   1.930       .  S
C2613      C2614   1.412       .  A
C2613      C2618   1.416       .  A
C2614      C2615   1.410       .  A
C2614     Br2626   1.925       .  S
C2615      C2616   1.408       .  A
C2615     Br2630   1.927       .  S
C2616      C2617   1.403       .  A
C2616      C2619   1.475       .  S
C2617      C2618   1.400       .  A
C2617     Br2625   1.941       .  S
C2618     Br2629   1.915       .  S
C2619      C2620   1.407       .  A
C2619      C2624   1.402       .  A
C2620      C2621   1.411       .  A
C2620     Br2631   1.931       .  S
C2621      C2622   1.424       .  A
C2621     Br2627   1.934       .  S
C2622      C2623   1.417       .  A
C2623      C2624   1.394       .  A
C2623     Br2632   1.937       .  S
C2624     Br2628   1.929       .  S
C2633      C2634   1.421       .  A
C2633      C2638   1.426       .  A
C2634      C2635   1.413       .  A
C2634     Br2646   1.926       .  S
C2635      C2636   1.406       .  A
C2635     Br2650   1.932       .  S
C2636      C2637   1.404       .  A
C2636      C2639   1.488       .  S
C2637      C2638   1.405       .  A
C2637     Br2645   1.937       .  S
C2638     Br2649   1.929       .  S
C2639      C2640   1.409       .  A
C2639      C2644   1.406       .  A
C2640      C2641   1.413       .  A
C2640     Br2651   1.929       .  S
C2641      C2642   1.417       .  A
C2641     Br2647   1.930       .  S
C2642      C2643   1.417       .  A
C2643      C2644   1.401       .  A
C2643     Br2652   1.925       .  S
C2644     Br2648   1.935       .  S
C2653      C2654   1.425       .  A
C2653      C2658   1.431       .  A
C2654      C2655   1.415       .  A
C2654     Br2666   1.919       .  S
C2655      C2656   1.405       .  A
C2655     Br2670   1.931       .  S
C2656      C2657   1.407       .  A
C2656      C2659   1.509       .  S
C2657      C2658   1.420       .  A
C2657     Br2665   1.936       .  S
C2658     Br2669   1.913       .  S
C2659      C2660   1.414       .  A
C2659      C2664   1.412       .  A
C2660      C2661   1.417       .  A
C2660     Br2671   1.930       .  S
C2661      C2662   1.416       .  A
C2661     Br2667   1.929       .  S
C2662      C2663   1.412       .  A
C2663      C2664   1.414       .  A
C2663     Br2672   1.921       .  S
C2664     Br2668   1.928       .  S
C2673      C2674   1.419       .  A
C2673      C2678   1.424       .  A
C2674      C2675   1.417       .  A
C2674     Br2686   1.915       .  S
C2675      C2676   1.410       .  A
C2675     Br2690   1.930       .  S
C2676      C2677   1.405       .  A
C2676      C2679   1.502       .  S
C2677      C2678   1.412       .  A
C2677     Br2685   1.937       .  S
C2678     Br2689   1.915       .  S
C2679      C2680   1.411       .  A
C2679      C2684   1.409       .  A
C2680      C2681   1.416       .  A
C2680     Br2691   1.929       .  S
C2681      C2682   1.415       .  A
C2681     Br2687   1.918       .  S
C2682      C2683   1.412       .  A
C2683      C2684   1.409       .  A
C2683     Br2692   1.921       .  S
C2684     Br2688   1.923       .  S
C2693      C2694   1.426       .  A
C2693      C2698   1.424       .  A
C2694      C2695   1.418       .  A
C2694     Br2706   1.913       .  S
C2695      C2696   1.411       .  A
C2695     Br2710   1.935       .  S
C2696      C2697   1.408       .  A
C2696      C2699   1.512       .  S
C2697      C2698   1.414       .  A
C2697     Br2705   1.931       .  S
C2698     Br2709   1.921       .  S
C2699      C2700   1.415       .  A
C2699      C2704   1.412       .  A
C2700      C2701   1.417       .  A
C2700     Br2711   1.930       .  S
C2701      C2702   1.416       .  A
C2701     Br2707   1.926       .  S
C2702      C2703   1.421       .  A
C2703      C2704   1.414       .  A
C2703     Br2712   1.931       .  S
C2704     Br2708   1.928       .  S
C2713      C2714   1.416       .  A
C2713      C2718   1.428       .  A
C2714      C2715   1.412       .  A
C2714     Br2726   1.910       .  S
C2715      C2716   1.408       .  A
C2715     Br2730   1.928       .  S
C2716      C2717   1.403       .  A
C2716      C2719   1.500       .  S
C2717      C2718   1.411       .  A
C2717     Br2725   1.935       .  S
C2718     Br2729   1.919       .  S
C2719      C2720   1.409       .  A
C2719      C2724   1.413       .  A
C2720      C2721   1.411       .  A
C2720     Br2731   1.934       .  S
C2721      C2722   1.416       .  A
C2721     Br2727   1.922       .  S
C2722      C2723   1.416       .  A
C2723      C2724   1.416       .  A
C2723     Br2732   1.927       .  S
C2724     Br2728   1.932       .  S
C2733      C2734   1.418       .  A
C2733      C2738   1.416       .  A
C2734      C2735   1.415       .  A
C2734     Br2746   1.934       .  S
C2735      C2736   1.414       .  A
C2735     Br2750   1.934       .  S
C2736      C2737   1.418       .  A
C2736      C2739   1.512       .  S
C2737      C2738   1.414       .  A
C2737     Br2745   1.926       .  S
C2738     Br2749   1.936       .  S
C2739      C2740   1.409       .  A
C2739      C2744   1.411       .  A
C2740      C2741   1.414       .  A
C2740     Br2751   1.932       .  S
C2741      C2742   1.422       .  A
C2741     Br2747   1.903       .  S
C2742      C2743   1.421       .  A
C2743      C2744   1.414       .  A
C2743     Br2752   1.914       .  S
C2744     Br2748   1.933       .  S
C2753      C2754   1.415       .  A
C2753      C2758   1.414       .  A
C2754      C2755   1.409       .  A
C2754     Br2766   1.932       .  S
C2755      C2756   1.413       .  A
C2755     Br2770   1.926       .  S
C2756      C2757   1.412       .  A
C2756      C2759   1.502       .  S
C2757      C2758   1.413       .  A
C2757     Br2765   1.932       .  S
C2758     Br2769   1.925       .  S
C2759      C2760   1.406       .  A
C2759      C2764   1.407       .  A
C2760      C2761   1.413       .  A
C2760     Br2771   1.937       .  S
C2761      C2762   1.426       .  A
C2761     Br2767   1.906       .  S
C2762      C2763   1.421       .  A
C2763      C2764   1.412       .  A
C2763     Br2772   1.916       .  S
C2764     Br2768   1.933       .  S
C2773      C2774   1.426       .  A
C2773      C2778   1.427       .  A
C2774      C2775   1.416       .  A
C2774     Br2786   1.922       .  S
C2775      C2776   1.406       .  A
C2775     Br2790   1.932       .  S
C2776      C2777   1.404       .  A
C2776      C2779   1.505       .  S
C2777      C2778   1.416       .  A
C2777     Br2785   1.936       .  S
C2778     Br2789   1.905       .  S
C2779      C2780   1.410       .  A
C2779      C2784   1.407       .  A
C2780      C2781   1.418       .  A
C2780     Br2791   1.926       .  S
C2781      C2782   1.419       .  A
C2781     Br2787   1.925       .  S
C2782      C2783   1.419       .  A
C2783      C2784   1.411       .  A
C2783     Br2792   1.920       .  S
C2784     Br2788   1.929       .  S
C2793      C2794   1.407       .  A
C2793      C2798   1.404       .  A
C2794      C2795   1.398       .  A
C2794     Br2806   1.922       .  S
C2795      C2796   1.404       .  A
C2795     Br2810   1.931       .  S
C2796      C2797   1.411       .  A
C2796      C2799   1.473       .  S
C2797      C2798   1.407       .  A
C2797     Br2805   1.926       .  S
C2798     Br2809   1.925       .  S
C2799      C2800   1.403       .  A
C2799      C2804   1.402       .  A
C2800      C2801   1.401       .  A
C2800     Br2811   1.929       .  S
C2801      C2802   1.421       .  A
C2801     Br2807   1.935       .  S
C2802      C2803   1.423       .  A
C2803      C2804   1.406       .  A
C2803     Br2812   1.926   1_554  S
C2804     Br2808   1.933       .  S
C2813      C2814   1.422       .  A
C2813      C2818   1.424       .  A
C2814      C2815   1.408       .  A
C2814     Br2826   1.935       .  S
C2815      C2816   1.404       .  A
C2815     Br2830   1.934       .  S
C2816      C2817   1.405       .  A
C2816      C2819   1.477       .  S
C2817      C2818   1.403       .  A
C2817     Br2825   1.938       .  S
C2818     Br2829   1.931       .  S
C2819      C2820   1.404       .  A
C2819      C2824   1.411       .  A
C2820      C2821   1.400       .  A
C2820     Br2831   1.934   1_455  S
C2821      C2822   1.412       .  A
C2821     Br2827   1.920   1_455  S
C2822      C2823   1.408       .  A
C2823      C2824   1.407       .  A
C2823     Br2832   1.927       .  S
C2824     Br2828   1.929       .  S
C2833      C2834   1.417   1_655  A
C2833      C2838   1.414       .  A
C2834      C2835   1.417       .  A
C2834     Br2846   1.927       .  S
C2835      C2836   1.412   1_455  A
C2835     Br2850   1.931       .  S
C2836      C2837   1.411       .  A
C2836      C2839   1.508       .  S
C2837      C2838   1.415       .  A
C2837     Br2845   1.927       .  S
C2838     Br2849   1.919       .  S
C2839      C2840   1.405       .  A
C2839      C2844   1.406       .  A
C2840      C2841   1.413       .  A
C2840     Br2851   1.927       .  S
C2841      C2842   1.422       .  A
C2841     Br2847   1.920   1_654  S
C2842      C2843   1.435       .  A
C2843      C2844   1.421       .  A
C2843     Br2852   1.916       .  S
C2844     Br2848   1.938       .  S
C2853      C2854   1.411       .  A
C2853      C2858   1.419       .  A
C2854      C2855   1.412       .  A
C2854     Br2866   1.915       .  S
C2855      C2856   1.410       .  A
C2855     Br2870   1.928       .  S
C2856      C2857   1.412       .  A
C2856      C2859   1.504       .  S
C2857      C2858   1.415       .  A
C2857     Br2865   1.931       .  S
C2858     Br2869   1.934       .  S
C2859      C2860   1.405       .  A
C2859      C2864   1.404       .  A
C2860      C2861   1.415       .  A
C2860     Br2871   1.929       .  S
C2861      C2862   1.425       .  A
C2861     Br2867   1.921       .  S
C2862      C2863   1.433       .  A
C2863      C2864   1.417       .  A
C2863     Br2872   1.913       .  S
C2864     Br2868   1.938       .  S
C2873      C2874   1.418       .  A
C2873      C2878   1.424       .  A
C2874      C2875   1.410       .  A
C2874     Br2886   1.910       .  S
C2875      C2876   1.407       .  A
C2875     Br2890   1.932       .  S
C2876      C2877   1.407       .  A
C2876      C2879   1.497       .  S
C2877      C2878   1.411       .  A
C2877     Br2885   1.936       .  S
C2878     Br2889   1.923       .  S
C2879      C2880   1.410       .  A
C2879      C2884   1.413       .  A
C2880      C2881   1.410       .  A
C2880     Br2891   1.933       .  S
C2881      C2882   1.415       .  A
C2881     Br2887   1.929       .  S
C2882      C2883   1.413       .  A
C2883      C2884   1.411       .  A
C2883     Br2892   1.924       .  S
C2884     Br2888   1.933       .  S
C2893      C2894   1.413       .  A
C2893      C2898   1.421       .  A
C2894      C2895   1.400       .  A
C2894     Br2906   1.932       .  S
C2895      C2896   1.412       .  A
C2895     Br2910   1.937       .  S
C2896      C2897   1.406       .  A
C2896      C2899   1.481       .  S
C2897      C2898   1.407       .  A
C2897     Br2905   1.931   1_554  S
C2898     Br2909   1.936   1_554  S
C2899      C2900   1.409       .  A
C2899      C2904   1.402       .  A
C2900      C2901   1.412       .  A
C2900     Br2911   1.929       .  S
C2901      C2902   1.419       .  A
C2901     Br2907   1.928       .  S
C2902      C2903   1.415       .  A
C2903      C2904   1.391       .  A
C2903     Br2912   1.922       .  S
C2904     Br2908   1.932       .  S
C2913      C2914   1.417       .  A
C2913      C2918   1.429       .  A
C2914      C2915   1.404       .  A
C2914     Br2926   1.932       .  S
C2915      C2916   1.406       .  A
C2915     Br2930   1.934       .  S
C2916      C2917   1.403       .  A
C2916      C2919   1.479       .  S
C2917      C2918   1.409       .  A
C2917     Br2925   1.933   1_556  S
C2918     Br2929   1.937   1_556  S
C2919      C2920   1.402       .  A
C2919      C2924   1.410       .  A
C2920      C2921   1.402       .  A
C2920     Br2931   1.932       .  S
C2921      C2922   1.413       .  A
C2921     Br2927   1.917       .  S
C2922      C2923   1.406       .  A
C2923      C2924   1.409       .  A
C2923     Br2932   1.920       .  S
C2924     Br2928   1.927       .  S
C2933      C2934   1.423       .  A
C2933      C2938   1.417       .  A
C2934      C2935   1.405       .  A
C2934     Br2946   1.937       .  S
C2935      C2936   1.403       .  A
C2935     Br2950   1.932       .  S
C2936      C2937   1.407       .  A
C2936      C2939   1.478       .  S
C2937      C2938   1.405       .  A
C2937     Br2945   1.934       .  S
C2938     Br2949   1.932       .  S
C2939      C2940   1.403       .  A
C2939      C2944   1.410       .  A
C2940      C2941   1.404       .  A
C2940     Br2951   1.931   1_565  S
C2941      C2942   1.412       .  A
C2941     Br2947   1.921   1_565  S
C2942      C2943   1.407       .  A
C2943      C2944   1.407       .  A
C2943     Br2952   1.921       .  S
C2944     Br2948   1.930       .  S
C2953      C2954   1.416       .  A
C2953      C2958   1.421       .  A
C2954      C2955   1.396       .  A
C2954     Br2966   1.931       .  S
C2955      C2956   1.406       .  A
C2955     Br2970   1.935       .  S
C2956      C2957   1.404       .  A
C2956      C2959   1.472       .  S
C2957      C2958   1.406       .  A
C2957     Br2965   1.933       .  S
C2958     Br2969   1.936       .  S
C2959      C2960   1.405       .  A
C2959      C2964   1.404       .  A
C2960      C2961   1.396       .  A
C2960     Br2971   1.935       .  S
C2961      C2962   1.417       .  A
C2961     Br2967   1.931       .  S
C2962      C2963   1.418       .  A
C2963      C2964   1.404       .  A
C2963     Br2972   1.929   1_565  S
C2964     Br2968   1.933   1_565  S
C2973      C2974   1.425       .  A
C2973      C2978   1.420       .  A
C2974      C2975   1.403       .  A
C2974     Br2986   1.922       .  S
C2975      C2976   1.400       .  A
C2975     Br2990   1.940       .  S
C2976      C2977   1.410       .  A
C2976      C2979   1.489       .  S
C2977      C2978   1.416       .  A
C2977     Br2985   1.928       .  S
C2978     Br2989   1.931       .  S
C2979      C2980   1.400       .  A
C2979      C2984   1.406       .  A
C2980      C2981   1.406       .  A
C2980     Br2991   1.933       .  S
C2981      C2982   1.424       .  A
C2981     Br2987   1.914       .  S
C2982      C2983   1.423       .  A
C2983      C2984   1.414       .  A
C2983     Br2992   1.914       .  S
C2984     Br2988   1.932       .  S
C2993      C2994   1.416       .  A
C2993      C2998   1.418       .  A
C2994      C2995   1.407       .  A
C2994     Br3006   1.926       .  S
C2995      C2996   1.406       .  A
C2995     Br3010   1.922       .  S
C2996      C2997   1.410       .  A
C2996      C2999   1.500       .  S
C2997      C2998   1.416       .  A
C2997     Br3005   1.927       .  S
C2998     Br3009   1.927       .  S
C2999      C3000   1.402       .  A
C2999      C3004   1.405       .  A
C3000      C3001   1.413       .  A
C3000     Br3011   1.934       .  S
C3001      C3002   1.425       .  A
C3001     Br3007   1.910       .  S
C3002      C3003   1.428       .  A
C3003      C3004   1.417       .  A
C3003     Br3012   1.907       .  S
C3004     Br3008   1.937       .  S
C3013      C3014   1.418       .  A
C3013      C3018   1.422   1_554  A
C3014      C3015   1.414       .  A
C3014     Br3026   1.928       .  S
C3015      C3016   1.410       .  A
C3015     Br3030   1.929       .  S
C3016      C3017   1.401   1_554  A
C3016      C3019   1.488       .  S
C3017      C3018   1.404       .  A
C3017     Br3025   1.933       .  S
C3018     Br3029   1.923       .  S
C3019      C3020   1.403   1_554  A
C3019      C3024   1.405       .  A
C3020      C3021   1.408       .  A
C3020     Br3031   1.930       .  S
C3021      C3022   1.424   1_556  A
C3021     Br3027   1.936   1_565  S
C3022      C3023   1.425       .  A
C3023      C3024   1.411       .  A
C3023     Br3032   1.917       .  S
C3024     Br3028   1.936       .  S
C3033      C3034   1.421       .  A
C3033      C3038   1.410       .  A
C3034      C3035   1.409       .  A
C3034     Br3046   1.933       .  S
C3035      C3036   1.405       .  A
C3035     Br3050   1.929       .  S
C3036      C3037   1.405       .  A
C3036      C3039   1.477       .  S
C3037      C3038   1.393       .  A
C3037     Br3045   1.924       .  S
C3038     Br3049   1.921       .  S
C3039      C3040   1.405       .  A
C3039      C3044   1.405       .  A
C3040      C3041   1.397       .  A
C3040     Br3051   1.927       .  S
C3041      C3042   1.413       .  A
C3041     Br3047   1.930       .  S
C3042      C3043   1.421       .  A
C3043      C3044   1.408       .  A
C3043     Br3052   1.934   1_455  S
C3044     Br3048   1.932   1_455  S
C3053      C3054   1.415       .  A
C3053      C3058   1.411       .  A
C3054      C3055   1.402       .  A
C3054     Br3066   1.917       .  S
C3055      C3056   1.405       .  A
C3055     Br3070   1.939       .  S
C3056      C3057   1.413       .  A
C3056      C3059   1.485       .  S
C3057      C3058   1.413       .  A
C3057     Br3065   1.931       .  S
C3058     Br3069   1.924       .  S
C3059      C3060   1.411       .  A
C3059      C3064   1.408       .  A
C3060      C3061   1.403       .  A
C3060     Br3071   1.936       .  S
C3061      C3062   1.416       .  A
C3061     Br3067   1.933       .  S
C3062      C3063   1.420       .  A
C3063      C3064   1.407       .  A
C3063     Br3072   1.938   1_655  S
C3064     Br3068   1.931   1_655  S
C3073      C3074   1.403       .  A
C3073      C3078   1.409       .  A
C3074      C3075   1.400       .  A
C3074     Br3086   1.919       .  S
C3075      C3076   1.408       .  A
C3075     Br3090   1.927       .  S
C3076      C3077   1.404       .  A
C3076      C3079   1.465       .  S
C3077      C3078   1.399       .  A
C3077     Br3085   1.931       .  S
C3078     Br3089   1.923       .  S
C3079      C3080   1.402       .  A
C3079      C3084   1.402       .  A
C3080      C3081   1.398       .  A
C3080     Br3091   1.932       .  S
C3081      C3082   1.418       .  A
C3081     Br3087   1.935       .  S
C3082      C3083   1.425       .  A
C3083      C3084   1.403       .  A
C3083     Br3092   1.938       .  S
C3084     Br3088   1.933       .  S
C3093      C3094   1.412       .  A
C3093      C3098   1.419       .  A
C3094      C3095   1.395       .  A
C3094     Br3106   1.930       .  S
C3095      C3096   1.410       .  A
C3095     Br3110   1.932       .  S
C3096      C3097   1.403       .  A
C3096      C3099   1.470       .  S
C3097      C3098   1.403       .  A
C3097     Br3105   1.936       .  S
C3098     Br3109   1.922       .  S
C3099      C3100   1.406       .  A
C3099      C3104   1.407       .  A
C3100      C3101   1.390       .  A
C3100     Br3111   1.925       .  S
C3101      C3102   1.410       .  A
C3101     Br3107   1.935       .  S
C3102      C3103   1.417       .  A
C3103      C3104   1.402       .  A
C3103     Br3112   1.938       .  S
C3104     Br3108   1.933       .  S
C3113      C3114   1.428       .  A
C3113      C3118   1.424       .  A
C3114      C3115   1.420       .  A
C3114     Br3126   1.914       .  S
C3115      C3116   1.408       .  A
C3115     Br3130   1.936       .  S
C3116      C3117   1.404       .  A
C3116      C3119   1.505       .  S
C3117      C3118   1.413       .  A
C3117     Br3125   1.934       .  S
C3118     Br3129   1.916       .  S
C3119      C3120   1.413       .  A
C3119      C3124   1.405       .  A
C3120      C3121   1.422       .  A
C3120     Br3131   1.930       .  S
C3121      C3122   1.421       .  A
C3121     Br3127   1.928       .  S
C3122      C3123   1.423       .  A
C3123      C3124   1.408       .  A
C3123     Br3132   1.926       .  S
C3124     Br3128   1.930       .  S
C3133      C3134   1.420   1_655  A
C3133      C3138   1.419       .  A
C3134      C3135   1.421       .  A
C3134     Br3146   1.928       .  S
C3135      C3136   1.412   1_455  A
C3135     Br3150   1.928       .  S
C3136      C3137   1.403       .  A
C3136      C3139   1.500   1_655  S
C3137      C3138   1.405       .  A
C3137     Br3145   1.931       .  S
C3138     Br3149   1.916       .  S
C3139      C3140   1.404   1_455  A
C3139      C3144   1.406       .  A
C3140      C3141   1.412       .  A
C3140     Br3151   1.932       .  S
C3141      C3142   1.424   1_655  A
C3141     Br3147   1.914       .  S
C3142      C3143   1.426       .  A
C3143      C3144   1.417       .  A
C3143     Br3152   1.912       .  S
C3144     Br3148   1.937       .  S
C3153      C3154   1.416       .  A
C3153      C3158   1.423       .  A
C3154      C3155   1.416       .  A
C3154     Br3166   1.929       .  S
C3155      C3156   1.413       .  A
C3155     Br3170   1.926       .  S
C3156      C3157   1.404       .  A
C3156      C3159   1.497       .  S
C3157      C3158   1.408       .  A
C3157     Br3165   1.937       .  S
C3158     Br3169   1.922       .  S
C3159      C3160   1.409       .  A
C3159      C3164   1.405       .  A
C3160      C3161   1.415       .  A
C3160     Br3171   1.933       .  S
C3161      C3162   1.420       .  A
C3161     Br3167   1.916       .  S
C3162      C3163   1.424       .  A
C3163      C3164   1.412       .  A
C3163     Br3172   1.925       .  S
C3164     Br3168   1.933       .  S
C3173      C3174   1.421       .  A
C3173      C3178   1.419       .  A
C3174      C3175   1.426       .  A
C3174     Br3186   1.927       .  S
C3175      C3176   1.416       .  A
C3175     Br3190   1.929       .  S
C3176      C3177   1.405       .  A
C3176      C3179   1.510       .  S
C3177      C3178   1.412       .  A
C3177     Br3185   1.936       .  S
C3178     Br3189   1.909       .  S
C3179      C3180   1.412       .  A
C3179      C3184   1.405       .  A
C3180      C3181   1.420       .  A
C3180     Br3191   1.932       .  S
C3181      C3182   1.421       .  A
C3181     Br3187   1.910       .  S
C3182      C3183   1.425       .  A
C3183      C3184   1.414       .  A
C3183     Br3192   1.915   1_565  S
C3184     Br3188   1.933       .  S
C3193      C3194   1.420       .  A
C3193      C3198   1.416       .  A
C3194      C3195   1.412       .  A
C3194     Br3206   1.934       .  S
C3195      C3196   1.410       .  A
C3195     Br3210   1.933       .  S
C3196      C3197   1.411       .  A
C3196      C3199   1.498       .  S
C3197      C3198   1.412       .  A
C3197     Br3205   1.932       .  S
C3198     Br3209   1.925       .  S
C3199      C3200   1.403       .  A
C3199      C3204   1.404       .  A
C3200      C3201   1.411       .  A
C3200     Br3211   1.939       .  S
C3201      C3202   1.430       .  A
C3201     Br3207   1.905       .  S
C3202      C3203   1.424       .  A
C3203      C3204   1.413       .  A
C3203     Br3212   1.915   1_545  S
C3204     Br3208   1.931       .  S
C3213      C3214   1.424   1_565  A
C3213      C3218   1.428       .  A
C3214      C3215   1.410       .  A
C3214     Br3226   1.911   1_455  S
C3215      C3216   1.401   1_545  A
C3215     Br3230   1.933       .  S
C3216      C3217   1.408       .  A
C3216      C3219   1.498       .  S
C3217      C3218   1.416       .  A
C3217     Br3225   1.940       .  S
C3218     Br3229   1.908       .  S
C3219      C3220   1.402       .  A
C3219      C3224   1.413       .  A
C3220      C3221   1.402       .  A
C3220     Br3231   1.936   1_565  S
C3221      C3222   1.430       .  A
C3221     Br3227   1.938       .  S
C3222      C3223   1.421       .  A
C3223      C3224   1.420       .  A
C3223     Br3232   1.929       .  S
C3224     Br3228   1.930       .  S
C3233      C3234   1.415   1_455  A
C3233      C3238   1.413       .  A
C3234      C3235   1.410       .  A
C3234     Br3246   1.925       .  S
C3235      C3236   1.412   1_655  A
C3235     Br3250   1.936       .  S
C3236      C3237   1.413       .  A
C3236      C3239   1.500       .  S
C3237      C3238   1.413       .  A
C3237     Br3245   1.930       .  S
C3238     Br3249   1.925       .  S
C3239      C3240   1.406       .  A
C3239      C3244   1.411       .  A
C3240      C3241   1.406   1_455  A
C3240     Br3251   1.935   1_455  S
C3241      C3242   1.418   1_655  A
C3241     Br3247   1.920       .  S
C3242      C3243   1.422       .  A
C3243      C3244   1.414       .  A
C3243     Br3252   1.913       .  S
C3244     Br3248   1.934       .  S
C3253      C3254   1.419       .  A
C3253      C3258   1.427   1_655  A
C3254      C3255   1.417       .  A
C3254     Br3266   1.911       .  S
C3255      C3256   1.409       .  A
C3255     Br3270   1.930       .  S
C3256      C3257   1.406   1_655  A
C3256      C3259   1.508       .  S
C3257      C3258   1.416       .  A
C3257     Br3265   1.937       .  S
C3258     Br3269   1.917       .  S
C3259      C3260   1.410   1_655  A
C3259      C3264   1.414       .  A
C3260      C3261   1.410       .  A
C3260     Br3271   1.929       .  S
C3261      C3262   1.414   1_455  A
C3261     Br3267   1.915       .  S
C3262      C3263   1.418       .  A
C3263      C3264   1.420       .  A
C3263     Br3272   1.924       .  S
C3264     Br3268   1.927       .  S
C3273      C3274   1.414       .  A
C3273      C3278   1.416       .  A
C3274      C3275   1.405       .  A
C3274     Br3286   1.920   1_655  S
C3275      C3276   1.403       .  A
C3275     Br3290   1.931   1_655  S
C3276      C3277   1.400       .  A
C3276      C3279   1.464       .  S
C3277      C3278   1.392       .  A
C3277     Br3285   1.936       .  S
C3278     Br3289   1.924       .  S
C3279      C3280   1.403       .  A
C3279      C3284   1.407       .  A
C3280      C3281   1.402       .  A
C3280     Br3291   1.929       .  S
C3281      C3282   1.412       .  A
C3281     Br3287   1.931       .  S
C3282      C3283   1.411       .  A
C3283      C3284   1.395       .  A
C3283     Br3292   1.927       .  S
C3284     Br3288   1.936       .  S
C3293      C3294   1.416       .  A
C3293      C3298   1.423       .  A
C3294      C3295   1.392       .  A
C3294     Br3306   1.939       .  S
C3295      C3296   1.405       .  A
C3295     Br3310   1.931       .  S
C3296      C3297   1.402       .  A
C3296      C3299   1.465       .  S
C3297      C3298   1.406       .  A
C3297     Br3305   1.932       .  S
C3298     Br3309   1.934       .  S
C3299      C3300   1.397       .  A
C3299      C3304   1.405       .  A
C3300      C3301   1.391       .  A
C3300     Br3311   1.934       .  S
C3301      C3302   1.413       .  A
C3301     Br3307   1.916       .  S
C3302      C3303   1.417       .  A
C3303      C3304   1.408       .  A
C3303     Br3312   1.929       .  S
C3304     Br3308   1.928       .  S
C3313      C3314   1.412       .  A
C3313      C3318   1.416       .  A
C3314      C3315   1.396       .  A
C3314     Br3326   1.929       .  S
C3315      C3316   1.408       .  A
C3315     Br3330   1.932       .  S
C3316      C3317   1.405       .  A
C3316      C3319   1.475       .  S
C3317      C3318   1.406       .  A
C3317     Br3325   1.930       .  S
C3318     Br3329   1.932       .  S
C3319      C3320   1.404       .  A
C3319      C3324   1.403       .  A
C3320      C3321   1.408       .  A
C3320     Br3331   1.931   1_565  S
C3321      C3322   1.418       .  A
C3321     Br3327   1.925   1_565  S
C3322      C3323   1.417       .  A
C3323      C3324   1.397       .  A
C3323     Br3332   1.920       .  S
C3324     Br3328   1.937       .  S
C3333      C3334   1.426       .  A
C3333      C3338   1.428       .  A
C3334      C3335   1.412       .  A
C3334     Br3346   1.933       .  S
C3335      C3336   1.402       .  A
C3335     Br3350   1.926   1_655  S
C3336      C3337   1.397       .  A
C3336      C3339   1.475       .  S
C3337      C3338   1.394       .  A
C3337     Br3345   1.930       .  S
C3338     Br3349   1.947       .  S
C3339      C3340   1.402       .  A
C3339      C3344   1.404       .  A
C3340      C3341   1.400       .  A
C3340     Br3351   1.941       .  S
C3341      C3342   1.430       .  A
C3341     Br3347   1.945       .  S
C3342      C3343   1.423       .  A
C3343      C3344   1.411       .  A
C3343     Br3352   1.932       .  S
C3344     Br3348   1.928       .  S
C3353      C3354   1.428       .  A
C3353      C3358   1.422       .  A
C3354      C3355   1.401       .  A
C3354     Br3366   1.939       .  S
C3355      C3356   1.400       .  A
C3355     Br3370   1.933       .  S
C3356      C3357   1.410       .  A
C3356      C3359   1.489       .  S
C3357      C3358   1.416       .  A
C3357     Br3365   1.932       .  S
C3358     Br3369   1.931       .  S
C3359      C3360   1.401       .  A
C3359      C3364   1.408       .  A
C3360      C3361   1.403       .  A
C3360     Br3371   1.929       .  S
C3361      C3362   1.419       .  A
C3361     Br3367   1.920       .  S
C3362      C3363   1.424       .  A
C3363      C3364   1.411       .  A
C3363     Br3372   1.913       .  S
C3364     Br3368   1.937       .  S
C3373      C3374   1.419       .  A
C3373      C3378   1.414       .  A
C3374      C3375   1.418       .  A
C3374     Br3386   1.919       .  S
C3375      C3376   1.412       .  A
C3375     Br3390   1.930       .  S
C3376      C3377   1.415       .  A
C3376      C3379   1.514       .  S
C3377      C3378   1.417       .  A
C3377     Br3385   1.928       .  S
C3378     Br3389   1.923       .  S
C3379      C3380   1.414       .  A
C3379      C3384   1.408       .  A
C3380      C3381   1.422       .  A
C3380     Br3391   1.935       .  S
C3381      C3382   1.428       .  A
C3381     Br3387   1.925       .  S
C3382      C3383   1.421       .  A
C3383      C3384   1.413       .  A
C3383     Br3392   1.928       .  S
C3384     Br3388   1.929       .  S
C3393      C3394   1.418       .  A
C3393      C3398   1.416   1_545  A
C3394      C3395   1.416       .  A
C3394     Br3406   1.928       .  S
C3395      C3396   1.412       .  A
C3395     Br3410   1.930       .  S
C3396      C3397   1.408   1_545  A
C3396      C3399   1.496       .  S
C3397      C3398   1.406       .  A
C3397     Br3405   1.939       .  S
C3398     Br3409   1.917       .  S
C3399      C3400   1.404   1_545  A
C3399      C3404   1.405       .  A
C3400      C3401   1.411       .  A
C3400     Br3411   1.935       .  S
C3401      C3402   1.424   1_565  A
C3401     Br3407   1.916   1_655  S
C3402      C3403   1.425       .  A
C3403      C3404   1.414       .  A
C3403     Br3412   1.908       .  S
C3404     Br3408   1.937       .  S
C3413      C3414   1.406       .  A
C3413      C3418   1.416       .  A
C3414      C3415   1.403       .  A
C3414     Br3426   1.904       .  S
C3415      C3416   1.408       .  A
C3415     Br3430   1.933       .  S
C3416      C3417   1.399       .  A
C3416      C3419   1.469       .  S
C3417      C3418   1.399       .  A
C3417     Br3425   1.932       .  S
C3418     Br3429   1.916       .  S
C3419      C3420   1.397       .  A
C3419      C3424   1.404       .  A
C3420      C3421   1.394       .  A
C3420     Br3431   1.939       .  S
C3421      C3422   1.432       .  A
C3421     Br3427   1.945       .  S
C3422      C3423   1.426       .  A
C3423      C3424   1.407       .  A
C3423     Br3432   1.938       .  S
C3424     Br3428   1.932       .  S
C3433      C3434   1.417       .  A
C3433      C3438   1.418       .  A
C3434      C3435   1.395       .  A
C3434     Br3446   1.928       .  S
C3435      C3436   1.403       .  A
C3435     Br3450   1.934       .  S
C3436      C3437   1.406       .  A
C3436      C3439   1.471       .  S
C3437      C3438   1.406       .  A
C3437     Br3445   1.934       .  S
C3438     Br3449   1.933       .  S
C3439      C3440   1.402       .  A
C3439      C3444   1.408       .  A
C3440      C3441   1.401       .  A
C3440     Br3451   1.933   1_455  S
C3441      C3442   1.414       .  A
C3441     Br3447   1.920   1_455  S
C3442      C3443   1.417       .  A
C3443      C3444   1.399       .  A
C3443     Br3452   1.928       .  S
C3444     Br3448   1.938       .  S
C3453      C3454   1.420       .  A
C3453      C3458   1.427       .  A
C3454      C3455   1.414       .  A
C3454     Br3466   1.930       .  S
C3455      C3456   1.407       .  A
C3455     Br3470   1.929       .  S
C3456      C3457   1.403       .  A
C3456      C3459   1.486       .  S
C3457      C3458   1.404       .  A
C3457     Br3465   1.936       .  S
C3458     Br3469   1.936       .  S
C3459      C3460   1.407       .  A
C3459      C3464   1.401       .  A
C3460      C3461   1.414       .  A
C3460     Br3471   1.926       .  S
C3461      C3462   1.420       .  A
C3461     Br3467   1.932       .  S
C3462      C3463   1.429       .  A
C3463      C3464   1.399       .  A
C3463     Br3472   1.944       .  S
C3464     Br3468   1.931       .  S
C3473      C3474   1.411       .  A
C3473      C3478   1.416       .  A
C3474      C3475   1.399       .  A
C3474     Br3486   1.929       .  S
C3475      C3476   1.410       .  A
C3475     Br3490   1.935       .  S
C3476      C3477   1.408       .  A
C3476      C3479   1.480       .  S
C3477      C3478   1.407       .  A
C3477     Br3485   1.930       .  S
C3478     Br3489   1.934       .  S
C3479      C3480   1.404       .  A
C3479      C3484   1.407       .  A
C3480      C3481   1.399       .  A
C3480     Br3491   1.940       .  S
C3481      C3482   1.421       .  A
C3481     Br3487   1.928       .  S
C3482      C3483   1.420       .  A
C3483      C3484   1.411       .  A
C3483     Br3492   1.932   1_556  S
C3484     Br3488   1.931   1_556  S
C3493      C3494   1.416       .  A
C3493      C3498   1.415       .  A
C3494      C3495   1.420       .  A
C3494     Br3506   1.925       .  S
C3495      C3496   1.413       .  A
C3495     Br3510   1.923       .  S
C3496      C3497   1.404       .  A
C3496      C3499   1.503       .  S
C3497      C3498   1.408       .  A
C3497     Br3505   1.924       .  S
C3498     Br3509   1.918       .  S
C3499      C3500   1.407       .  A
C3499      C3504   1.406       .  A
C3500      C3501   1.419       .  A
C3500     Br3511   1.933       .  S
C3501      C3502   1.427       .  A
C3501     Br3507   1.915       .  S
C3502      C3503   1.423       .  A
C3503      C3504   1.414       .  A
C3503     Br3512   1.924       .  S
C3504     Br3508   1.931       .  S
C3513      C3514   1.429       .  A
C3513      C3518   1.427   1_455  A
C3514      C3515   1.401   1_455  A
C3514     Br3526   1.941       .  S
C3515      C3516   1.402       .  A
C3515     Br3530   1.938       .  S
C3516      C3517   1.412       .  A
C3516      C3519   1.495       .  S
C3517      C3518   1.415       .  A
C3517     Br3525   1.931       .  S
C3518     Br3529   1.935       .  S
C3519      C3520   1.410   1_655  A
C3519      C3524   1.402       .  A
C3520      C3521   1.414       .  A
C3520     Br3531   1.943       .  S
C3521      C3522   1.429       .  A
C3521     Br3527   1.913       .  S
C3522      C3523   1.422   1_455  A
C3523      C3524   1.406       .  A
C3523     Br3532   1.914   1_556  S
C3524     Br3528   1.932       .  S
C3533      C3534   1.415       .  A
C3533      C3538   1.416       .  A
C3534      C3535   1.409       .  A
C3534     Br3546   1.910       .  S
C3535      C3536   1.405       .  A
C3535     Br3550   1.934       .  S
C3536      C3537   1.408       .  A
C3536      C3539   1.493       .  S
C3537      C3538   1.413       .  A
C3537     Br3545   1.929       .  S
C3538     Br3549   1.920       .  S
C3539      C3540   1.403       .  A
C3539      C3544   1.402       .  A
C3540      C3541   1.411       .  A
C3540     Br3551   1.935       .  S
C3541      C3542   1.426       .  A
C3541     Br3547   1.911       .  S
C3542      C3543   1.425       .  A
C3543      C3544   1.412       .  A
C3543     Br3552   1.918       .  S
C3544     Br3548   1.932       .  S
C3553      C3554   1.426       .  A
C3553      C3558   1.424       .  A
C3554      C3555   1.416       .  A
C3554     Br3566   1.934       .  S
C3555      C3556   1.409       .  A
C3555     Br3570   1.931       .  S
C3556      C3557   1.412       .  A
C3556      C3559   1.507       .  S
C3557      C3558   1.416       .  A
C3557     Br3565   1.933       .  S
C3558     Br3569   1.933       .  S
C3559      C3560   1.410   1_554  A
C3559      C3564   1.415       .  A
C3560      C3561   1.407       .  A
C3560     Br3571   1.922       .  S
C3561      C3562   1.404   1_556  A
C3561     Br3567   1.915   1_545  S
C3562      C3563   1.431       .  A
C3563      C3564   1.422       .  A
C3563     Br3572   1.925   1_545  S
C3564     Br3568   1.925       .  S
C3573      C3574   1.423       .  A
C3573      C3578   1.425   1_545  A
C3574      C3575   1.423       .  A
C3574     Br3586   1.914       .  S
C3575      C3576   1.412       .  A
C3575     Br3590   1.932       .  S
C3576      C3577   1.409   1_545  A
C3576      C3579   1.518       .  S
C3577      C3578   1.420       .  A
C3577     Br3585   1.930       .  S
C3578     Br3589   1.924   1_455  S
C3579      C3580   1.415       .  A
C3579      C3584   1.407   1_545  A
C3580      C3581   1.425       .  A
C3580     Br3591   1.927       .  S
C3581      C3582   1.421       .  A
C3581     Br3587   1.928       .  S
C3582      C3583   1.425   1_545  A
C3583      C3584   1.417       .  A
C3583     Br3592   1.921       .  S
C3584     Br3588   1.932       .  S
C3593      C3594   1.419       .  A
C3593      C3598   1.423       .  A
C3594      C3595   1.421       .  A
C3594     Br3606   1.928       .  S
C3595      C3596   1.414       .  A
C3595     Br3610   1.928       .  S
C3596      C3597   1.408       .  A
C3596      C3599   1.508       .  S
C3597      C3598   1.407       .  A
C3597     Br3605   1.928       .  S
C3598     Br3609   1.939       .  S
C3599      C3600   1.406       .  A
C3599      C3604   1.408   1_455  A
C3600      C3601   1.417       .  A
C3600     Br3611   1.941       .  S
C3601      C3602   1.431       .  A
C3601     Br3607   1.911       .  S
C3602      C3603   1.426   1_455  A
C3603      C3604   1.418       .  A
C3603     Br3612   1.928       .  S
C3604     Br3608   1.930       .  S
C3613      C3614   1.417       .  A
C3613      C3618   1.417   1_556  A
C3614      C3615   1.420       .  A
C3614     Br3626   1.926       .  S
C3615      C3616   1.415       .  A
C3615     Br3630   1.927       .  S
C3616      C3617   1.412   1_556  A
C3616      C3619   1.512       .  S
C3617      C3618   1.409       .  A
C3617     Br3625   1.931       .  S
C3618     Br3629   1.920       .  S
C3619      C3620   1.411   1_556  A
C3619      C3624   1.411       .  A
C3620      C3621   1.417       .  A
C3620     Br3631   1.936       .  S
C3621      C3622   1.422   1_554  A
C3621     Br3627   1.922   1_565  S
C3622      C3623   1.419       .  A
C3623      C3624   1.415       .  A
C3623     Br3632   1.916       .  S
C3624     Br3628   1.932       .  S
C3633      C3634   1.427   1_565  A
C3633      C3638   1.422       .  A
C3634      C3635   1.419       .  A
C3634     Br3646   1.932       .  S
C3635      C3636   1.410   1_545  A
C3635     Br3650   1.932       .  S
C3636      C3637   1.408       .  A
C3636      C3639   1.506   1_565  S
C3637      C3638   1.415       .  A
C3637     Br3645   1.927       .  S
C3638     Br3649   1.927       .  S
C3639      C3640   1.413       .  A
C3639      C3644   1.410   1_545  A
C3640      C3641   1.423       .  A
C3640     Br3651   1.930       .  S
C3641      C3642   1.435       .  A
C3641     Br3647   1.931       .  S
C3642      C3643   1.405   1_645  A
C3643      C3644   1.410   1_455  A
C3643     Br3652   1.919   1_565  S
C3644     Br3648   1.919   1_655  S
C3653      C3654   1.423       .  A
C3653      C3658   1.426   1_655  A
C3654      C3655   1.417       .  A
C3654     Br3666   1.918       .  S
C3655      C3656   1.411       .  A
C3655     Br3670   1.932       .  S
C3656      C3657   1.409   1_655  A
C3656      C3659   1.515       .  S
C3657      C3658   1.419       .  A
C3657     Br3665   1.931       .  S
C3658     Br3669   1.924   1_556  S
C3659      C3660   1.410   1_655  A
C3659      C3664   1.416       .  A
C3660      C3661   1.412       .  A
C3660     Br3671   1.934       .  S
C3661      C3662   1.417   1_455  A
C3661     Br3667   1.917       .  S
C3662      C3663   1.422       .  A
C3663      C3664   1.426       .  A
C3663     Br3672   1.926       .  S
C3664     Br3668   1.930       .  S
