geometry optimzed in LAMMPS
_audit_creation_date              2020-11-30 
_audit_creation_method            'lammps2cif' 
_symmetry_space_group_name_H-M    'P1' 
_symmetry_Int_Tables_number       1 
_symmetry_cell_setting            triclinic 
loop_ 
_symmetry_equiv_pos_as_xyz 
  x,y,z 
_cell_length_a                    32.31756156 
_cell_length_b                    32.408376551671616 
_cell_length_c                    32.5255041210692 
_cell_angle_alpha                 91.79263251801368 
_cell_angle_beta                  90.37337600208254 
_cell_angle_gamma                 90.25404234248896 
loop_ 
_atom_site_label 
_atom_site_type_symbol 
_atom_site_fract_x 
_atom_site_fract_y 
_atom_site_fract_z 
_atom_site_charge 
O1          O  0.44282552  0.46902241  0.00231680    -0.71800
O2          O  0.53035331  0.55284870  0.03657786    -0.72800
O3          O  0.53035714  0.47001749  0.00131279    -0.61400
O4          O  0.44273941  0.55219471  0.03881150    -0.69800
O5          O  0.44372436  0.52265551  0.09942214    -0.69400
O6          O  0.53289271  0.44260077  0.06292453    -0.60600
O7          O  0.53087044  0.52557586  0.09823034    -0.73100
O8          O  0.44488386  0.43942850  0.06287115    -0.71900
Cu9        Cu  0.48641090  0.51176649  0.01754580     1.04600
Cu10       Cu  0.48807000  0.48167014  0.08301552     1.04300
C11         C  0.43095402  0.44046994  0.02603312     0.94400
C12         C  0.54352456  0.55315497  0.07364112     0.93500
C13         C  0.54536931  0.44352775  0.02581740     0.85700
C14         C  0.43048761  0.55091853  0.07605395     0.91900
O15         O  0.57405285  0.99398552  0.50144998    -0.71800
O16         O  0.47517984  0.95629458  0.56608988    -0.72800
O17         O  0.48600944  0.99229877  0.48654864    -0.61400
O18         O  0.56166448  0.95974564  0.58093461    -0.69800
O19         O  0.55754266  0.02186207  0.61102166    -0.69400
O20         O  0.47991490  0.05328530  0.51839465    -0.60600
O21         O  0.47015766  0.01718816  0.59854696    -0.73100
O22         O  0.56823039  0.05613833  0.53112894    -0.71900
Cu23       Cu  0.52436495  0.97350252  0.53274331     1.04600
Cu24       Cu  0.51863512  0.03939054  0.56555041     1.04300
C25         C  0.58690243  0.03112117  0.50618538     0.94400
C26         C  0.45815481  0.97964950  0.59355243     0.93500
C27         C  0.47091420  0.02875082  0.48780447     0.85700
C28         C  0.57123028  0.98499001  0.61085250     0.91900
O29         O  0.02251474  0.52442513  0.51804085    -0.71800
O30         O  0.99208848  0.45348669  0.61337370    -0.72800
O31         O  0.00969763  0.43759296  0.52691298    -0.61400
O32         O  0.00357814  0.54167929  0.60322761    -0.69800
O33         O  0.93747999  0.54691854  0.58553657    -0.69400
O34         O  0.94391505  0.44846003  0.51122645    -0.60600
O35         O  0.92613197  0.46095886  0.59596075    -0.73100
O36         O  0.95678609  0.53420394  0.50137356    -0.71900
Cu37       Cu  0.00942275  0.48905770  0.56604221     1.04600
Cu38       Cu  0.93895408  0.49778117  0.54811621     1.04300
C39         C  0.99520871  0.54054822  0.49476807     0.94400
C40         C  0.95387749  0.44569400  0.61937290     0.93500
C41         C  0.97687234  0.42721745  0.50666951     0.85700
C42         C  0.96892518  0.56081512  0.60555851     0.91900
N43         N  0.40172802  0.40990991  0.01044714    -0.02300
C44         C  0.41549234  0.37919290  0.98437269     0.00300
C45         C  0.39451877  0.38090525  0.94706242    -0.22600
C46         C  0.36418020  0.40973993  0.95192609    -0.22800
C47         C  0.36759485  0.42501223  0.99183230     0.00200
H48         H  0.39477382  0.35793362  0.92221018     0.13900
H49         H  0.33772490  0.41275944  0.93166196     0.14000
N50         N  0.40177624  0.58103084  0.09247952    -0.02300
C51         C  0.41560348  0.61163708  0.11901760     0.00300
C52         C  0.39245792  0.61141608  0.15478294    -0.22600
C53         C  0.36171052  0.58281921  0.14866303    -0.22800
C54         C  0.36664956  0.56638886  0.10936431     0.00200
H55         H  0.39213029  0.63485544  0.17917474     0.13900
H56         H  0.33425215  0.58067074  0.16738181     0.14000
N57         N  0.42748714  0.96221426  0.62041173    -0.02300
C58         C  0.44430069  0.94131822  0.65196901     0.00300
C59         C  0.43843692  0.89924695  0.64522242    -0.22600
C60         C  0.41115269  0.89497103  0.61307511    -0.22800
C61         C  0.40008630  0.93469123  0.60290284     0.00200
H62         H  0.44537883  0.87503411  0.66633640     0.13900
H63         H  0.39391185  0.86696394  0.60570252     0.14000
O64         O  0.45733230  0.05654682  0.03547471    -0.71800
O65         O  0.46349502  0.93187952  0.04150980    -0.72800
O66         O  0.45913896  0.98976248  0.97688224    -0.61400
O67         O  0.46268715  0.00014422  0.09964445    -0.69800
O68         O  0.39411883  0.99840050  0.10244259    -0.69400
O69         O  0.39086879  0.98232778  0.97801759    -0.60600
O70         O  0.39524754  0.92884656  0.04697644    -0.73100
O71         O  0.38878470  0.05228598  0.03397627    -0.71900
Cu72       Cu  0.46296642  0.99450403  0.03824895     1.04600
Cu73       Cu  0.38979525  0.99023021  0.04031657     1.04300
C74         C  0.42195822  0.07394527  0.03349040     0.94400
C75         C  0.43037342  0.91089064  0.04662732     0.93500
C76         C  0.42470361  0.98481446  0.95792934     0.85700
C77         C  0.42935770  0.00209878  0.12042201     0.91900
N78         N  0.44474416  0.04332372  0.45455653    -0.02300
C79         C  0.46457527  0.06693721  0.42668869     0.00300
C80         C  0.45941037  0.10824521  0.43842640    -0.22600
C81         C  0.42460572  0.10935284  0.46226491    -0.22800
C82         C  0.41359108  0.06852913  0.46766614     0.00200
H83         H  0.47035753  0.13445064  0.42164630     0.13900
H84         H  0.40562849  0.13641111  0.46736112     0.14000
N85         N  0.57778301  0.41618947  0.01165218    -0.07100
C86         C  0.56836296  0.38724396  0.98189387     0.00300
C87         C  0.58348623  0.40039089  0.94466234    -0.22600
C88         C  0.61243539  0.43031094  0.95441596    -0.22800
C89         C  0.61094532  0.43617549  0.99668845     0.00200
H90         H  0.58161962  0.38384181  0.91531343     0.13900
H91         H  0.63723110  0.43947151  0.93438853     0.14000
N92         N  0.94147703  0.41904609  0.65184030    -0.02300
C93         C  0.92084908  0.43536120  0.68495229     0.00300
C94         C  0.88468503  0.41320162  0.69062897    -0.22600
C95         C  0.88532833  0.38010643  0.66357867    -0.22800
C96         C  0.92126280  0.38334859  0.64105230     0.00200
H97         H  0.86454893  0.41553553  0.71706360     0.13900
H98         H  0.86543624  0.35329603  0.66539628     0.14000
O99         O  0.04807575  0.46047856  0.06438357    -0.71800
O100        O  0.92490140  0.45578719  0.07455771    -0.72800
O101        O  0.99217784  0.45226405  0.13055570    -0.61400
O102        O  0.98110013  0.46420902  0.00788378    -0.69800
O103        O  0.97950173  0.39601528  0.99925246    -0.69400
O104        O  0.99645852  0.38424066  0.12159294    -0.60600
O105        O  0.92627630  0.38759039  0.06769217    -0.73100
O106        O  0.04925541  0.39246295  0.05325185    -0.71900
Cu107      Cu  0.98644619  0.46053400  0.06966090     1.04600
Cu108      Cu  0.98788601  0.38766590  0.06016293     1.04300
C109        C  0.06792913  0.42716759  0.05701833     0.94400
C110        C  0.90601672  0.42109423  0.07294756     0.93500
C111        C  0.99677002  0.41647115  0.14530726     0.85700
C112        C  0.97837354  0.43201972  0.98426520     0.91900
N113        N  0.97534774  0.39138582  0.47882313    -0.02300
C114        C  0.96224437  0.40079218  0.44035459     0.00300
C115        C  0.92013075  0.39375921  0.43652536    -0.22600
C116        C  0.90974183  0.36980727  0.46866474    -0.22800
C117        C  0.94634307  0.36345818  0.49054602     0.00200
H118        H  0.90176783  0.39634514  0.40876507     0.13900
H119        H  0.88112801  0.35258062  0.46953334     0.14000
N120        N  0.00859250  0.56658470  0.46186355    -0.02300
C121        C  0.02905033  0.54702825  0.43041082     0.00300
C122        C  0.07132992  0.54998273  0.43865000    -0.22600
C123        C  0.07589535  0.58299743  0.46583563    -0.22800
C124        C  0.03615235  0.59572446  0.47541643     0.00200
H125        H  0.09560434  0.53981360  0.41793548     0.13900
H126        H  0.10389026  0.60128301  0.46918545     0.14000
N127        N  0.62204571  0.04540953  0.48322641    -0.02300
C128        C  0.61521655  0.07215247  0.45246032     0.00300
C129        C  0.64028835  0.10651029  0.45761616    -0.22600
C130        C  0.66579412  0.09932441  0.49018569    -0.22800
C131        C  0.65593892  0.06047072  0.50411505     0.00200
H132        H  0.64463242  0.13077190  0.43589427     0.13900
H133        H  0.69355520  0.11704887  0.49712309     0.14000
O134        O  0.96633204  0.96958890  0.50602583    -0.71800
O135        O  0.08883328  0.98681553  0.50045420    -0.72800
O136        O  0.01950183  0.03865018  0.51273726    -0.61400
O137        O  0.03428023  0.91678476  0.49266984    -0.69800
O138        O  0.02875919  0.92515575  0.42530849    -0.69400
O139        O  0.01711564  0.04743925  0.44533466    -0.60600
O140        O  0.08541708  0.99430973  0.43303085    -0.73100
O141        O  0.96073775  0.97989185  0.43916165    -0.71900
Cu142      Cu  0.02765896  0.97745925  0.50517264     1.04600
Cu143      Cu  0.02299989  0.98674162  0.43323285     1.04300
C144        C  0.94389535  0.97325669  0.47393497     0.94400
C145        C  0.10638033  0.99514284  0.46660898     0.93500
C146        C  0.01562390  0.06217197  0.48214908     0.85700
C147        C  0.03210733  0.90170510  0.45595279     0.91900
N148        N  0.57264816  0.58442900  0.08829577    -0.02300
C149        C  0.55764297  0.61394103  0.11486822     0.00300
C150        C  0.56848269  0.60336128  0.15470332    -0.22600
C151        C  0.60018640  0.57570214  0.15077520    -0.22800
C152        C  0.60507896  0.56860962  0.10901451     0.00200
H153        H  0.56221132  0.62077474  0.18285514     0.13900
H154        H  0.62265682  0.56968009  0.17465809     0.14000
N155        N  0.96419299  0.59857096  0.62993505    -0.02300
C156        C  0.93743338  0.59568034  0.66173512     0.00300
C157        C  0.89905699  0.61077536  0.65071864    -0.22600
C158        C  0.90589408  0.63346089  0.61664901    -0.22800
C159        C  0.94784709  0.62991690  0.60832535     0.00200
H160        H  0.87226120  0.61393455  0.67032290     0.13900
H161        H  0.88553935  0.65776316  0.60687299     0.14000
N162        N  0.59731998  0.97111791  0.64417329    -0.02300
C163        C  0.57857061  0.94734787  0.67258161     0.00300
C164        C  0.58596193  0.90605749  0.66201261    -0.22600
C165        C  0.62030704  0.90598453  0.63748982    -0.22800
C166        C  0.62876418  0.94695381  0.63040673     0.00200
H167        H  0.57627318  0.87973850  0.67932085     0.13900
H168        H  0.64094049  0.88009209  0.63269933     0.14000
O169        O  0.55215210  0.06601285  0.05821479    -0.71800
O170        O  0.54881343  0.94375309  0.07056832    -0.72800
O171        O  0.55087115  0.01330128  0.12673679    -0.61400
O172        O  0.55153212  0.99732410  0.00234065    -0.69800
O173        O  0.62015813  0.99882473  0.00334714    -0.69400
O174        O  0.61938790  0.01094786  0.12757491    -0.60600
O175        O  0.61713505  0.94084848  0.06966298    -0.73100
O176        O  0.62072858  0.06677447  0.06136890    -0.71900
Cu177      Cu  0.54861355  0.00504710  0.06453301     1.04600
Cu178      Cu  0.62184314  0.00409799  0.06561311     1.04300
C179        C  0.58634031  0.08580523  0.05737955     0.94400
C180        C  0.58188816  0.92259853  0.07194658     0.93500
C181        C  0.58513259  0.01507844  0.14667405     0.85700
C182        C  0.58604728  0.99681830  0.98324180     0.91900
O183        O  0.07971425  0.00736049  0.66421423    -0.71800
O184        O  0.95502822  0.01288848  0.67403358    -0.72800
O185        O  0.01348230  0.94876721  0.66724722    -0.61400
O186        O  0.01935264  0.07331228  0.67067403    -0.69800
O187        O  0.01785951  0.07280485  0.60247819    -0.69400
O188        O  0.00511139  0.94948807  0.59955454    -0.60600
O189        O  0.94935690  0.01657257  0.60618318    -0.73100
O190        O  0.07322109  0.00368079  0.59627343    -0.71900
Cu191      Cu  0.01731327  0.01087426  0.67146800     1.04600
Cu192      Cu  0.01132533  0.01092905  0.59883210     1.04300
C193        C  0.09586866  0.00233253  0.62858741     0.94400
C194        C  0.93264123  0.01448193  0.64159942     0.93500
C195        C  0.00745550  0.92960425  0.63277272     0.85700
C196        C  0.01852472  0.09269182  0.63699854     0.91900
O197        O  0.92683398  0.62405997  0.04628960    -0.71800
O198        O  0.05076058  0.61617589  0.04961003    -0.72800
O199        O  0.99082283  0.62489827  0.98600627    -0.61400
O200        O  0.98638300  0.61466893  0.10956996    -0.69800
O201        O  0.98393252  0.54644808  0.10131105    -0.69400
O202        O  0.98551807  0.55679422  0.97906900    -0.60600
O203        O  0.04642730  0.54799439  0.04095334    -0.73100
O204        O  0.92289774  0.55594906  0.03932304    -0.71900
Cu205      Cu  0.98889602  0.62241774  0.04807330     1.04600
Cu206      Cu  0.98451296  0.54951718  0.03982051     1.04300
C207        C  0.90523479  0.59101503  0.04282255     0.94400
C208        C  0.06796719  0.58086984  0.04593724     0.93500
C209        C  0.98817433  0.59214346  0.96312257     0.85700
C210        C  0.98474605  0.57875754  0.12478958     0.91900
C211        C  0.81598569  0.02985575  0.63336262    -0.13200
C212        C  0.80185335  0.99029454  0.64269554     0.17200
C213        C  0.83064121  0.96025396  0.65416408     0.03500
C214        C  0.87290424  0.96984720  0.65531383    -0.11700
C215        C  0.88734403  0.00895016  0.64473027    -0.02800
C216        C  0.85845244  0.03963067  0.63428354     0.02700
C217        C  0.75708958  0.98049460  0.63886188     0.09500
N218        N  0.81732576  0.91988358  0.66477137     0.65900
H219        H  0.89479438  0.94615692  0.66339093     0.18800
N220        N  0.87133554  0.08096463  0.62620816     0.76400
H221        H  0.79372465  0.05323963  0.62540406     0.10300
C222        C  0.72776781  0.99994472  0.66468567     0.04000
C223        C  0.68555559  0.99126630  0.65883673    -0.04700
C224        C  0.67201429  0.96227027  0.62852809    -0.23100
C225        C  0.70134440  0.94346725  0.60198571     0.13300
C226        C  0.74354272  0.95271757  0.60764554    -0.12200
N227        N  0.74064162  0.02604730  0.69882849     0.64900
H228        H  0.66352153  0.00494394  0.68016844     0.12800
N229        N  0.68883529  0.91498554  0.56940092     0.61600
H230        H  0.76598745  0.93828591  0.58741518     0.08900
O231        O  0.89860486  0.09843000  0.64866357    -0.39900
O232        O  0.85137972  0.10211298  0.60090444    -0.39100
O233        O  0.82535571  0.88930195  0.64125737    -0.39100
O234        O  0.80261439  0.91409198  0.69997550    -0.36800
O235        O  0.65542203  0.92030196  0.54997555    -0.37700
O236        O  0.71255837  0.88605736  0.55794266    -0.33800
O237        O  0.72373505  0.06068198  0.70508736    -0.35200
O238        O  0.76504386  0.01236002  0.72558310    -0.39500
C239        C  0.57473429  0.95371506  0.87383461    -0.13200
C240        C  0.58919806  0.98620627  0.85007164     0.17200
C241        C  0.60164962  0.02333710  0.87081480     0.03500
C242        C  0.60034850  0.02643416  0.91425505    -0.11700
C243        C  0.58659764  0.99325145  0.93757380    -0.02800
C244        C  0.57317232  0.95688405  0.91681325     0.02700
C245        C  0.59086374  0.97947509  0.80408827     0.09500
N246        N  0.61707371  0.05749805  0.84855970     0.65900
H247        H  0.61053070  0.05473892  0.92989478     0.18800
N248        N  0.55909684  0.92215509  0.93892619     0.76400
H249        H  0.56560435  0.92476994  0.85891608     0.10300
C250        C  0.60752192  0.94264326  0.78693890     0.04000
C251        C  0.60191856  0.93287146  0.74505091    -0.04700
C252        C  0.58127566  0.95941437  0.71802098    -0.23100
C253        C  0.56799816  0.99806176  0.73456024     0.13300
C254        C  0.57218927  0.00732320  0.77724372    -0.12200
N255        N  0.63132687  0.91512379  0.81147207     0.64900
H256        H  0.61590795  0.90460170  0.73353351     0.12800
N257        N  0.55015116  0.02827170  0.70874457     0.61600
H258        H  0.55961302  0.03597924  0.78956648     0.08900
O259        O  0.52651645  0.90344396  0.92737640    -0.39900
O260        O  0.58260011  0.90608138  0.96504267    -0.39100
O261        O  0.60159722  0.09288992  0.85425865    -0.39100
O262        O  0.64871474  0.05324820  0.82631084    -0.36800
O263        O  0.51807395  0.01968589  0.68786479    -0.37700
O264        O  0.56345667  0.06496875  0.71054334    -0.33800
O265        O  0.62737263  0.87652991  0.80627641    -0.35200
O266        O  0.65893427  0.92922009  0.83577371    -0.39500
C267        C  0.95315889  0.63406448  0.77311183    -0.13200
C268        C  0.98265351  0.60626267  0.78677089     0.17200
C269        C  0.99957790  0.57691092  0.75874276     0.03500
C270        C  0.98399469  0.57389905  0.71826732    -0.11700
C271        C  0.95286671  0.60050937  0.70492599    -0.02800
C272        C  0.93897561  0.63247646  0.73248194     0.02700
C273        C  0.98715123  0.60230491  0.83165628     0.09500
N274        N  0.03250300  0.55028199  0.77093905     0.65900
H275        H  0.99623051  0.55066555  0.69703004     0.18800
N276        N  0.91129469  0.66421737  0.71998146     0.76400
H277        H  0.94043508  0.65684169  0.79458901     0.10300
C278        C  0.01685519  0.62427485  0.85573561     0.04000
C279        C  0.01734923  0.61977028  0.89866127    -0.04700
C280        C  0.98787975  0.59487867  0.91785938    -0.23100
C281        C  0.95748462  0.57411306  0.89345461     0.13300
C282        C  0.95783616  0.57779019  0.85082909    -0.12200
N283        N  0.04587614  0.65165994  0.83735471     0.64900
H284        H  0.04024382  0.63644144  0.91723416     0.12800
N285        N  0.92361962  0.55254225  0.91132929     0.61600
H286        H  0.93408659  0.56222046  0.83239635     0.08900
O287        O  0.87826859  0.67061116  0.73964319    -0.39900
O288        O  0.92340788  0.69060690  0.69494817    -0.39100
O289        O  0.06258087  0.56491410  0.79170179    -0.39100
O290        O  0.03491392  0.51404473  0.75581383    -0.36800
O291        O  0.88718182  0.56079284  0.90020284    -0.37700
O292        O  0.93005322  0.51988220  0.93038055    -0.33800
O293        O  0.03338266  0.67885056  0.81330483    -0.35200
O294        O  0.08332305  0.65180089  0.84864150    -0.39500
C295        C  0.98134616  0.81752216  0.65420134    -0.13200
C296        C  0.00278438  0.79709141  0.62224713     0.17200
C297        C  0.02612933  0.82020934  0.59467993     0.03500
C298        C  0.02503216  0.86336847  0.59773422    -0.11700
C299        C  0.00498907  0.88401999  0.63044526    -0.02800
C300        C  0.98301760  0.86069944  0.65921918     0.02700
C301        C  0.99557623  0.75241398  0.61449903     0.09500
N302        N  0.05242313  0.80024499  0.56480607     0.65900
H303        H  0.04119840  0.88098928  0.57508940     0.18800
N304        N  0.95974213  0.88026378  0.69162891     0.76400
H305        H  0.96271057  0.79981837  0.67497580     0.10300
C306        C  0.01100882  0.72272720  0.64104628     0.04000
C307        C  0.99924972  0.68133407  0.63523117    -0.04700
C308        C  0.97109325  0.66914885  0.60384614    -0.23100
C309        C  0.95806012  0.69855026  0.57534165     0.13300
C310        C  0.97048562  0.73986180  0.58110096    -0.12200
N311        N  0.03686812  0.73457704  0.67523509     0.64900
H312        H  0.00942156  0.65941415  0.65760454     0.12800
N313        N  0.93016343  0.68736363  0.54222577     0.61600
H314        H  0.95915576  0.76280281  0.56050913     0.08900
O315        O  0.92148485  0.87291651  0.69437460    -0.39900
O316        O  0.97841828  0.89754685  0.72173816    -0.39100
O317        O  0.06134649  0.81806349  0.53208254    -0.39100
O318        O  0.07280085  0.76880694  0.57446058    -0.36800
O319        O  0.93385461  0.65319135  0.52292381    -0.37700
O320        O  0.90150644  0.71152495  0.53229430    -0.33800
O321        O  0.02189571  0.73701579  0.71095791    -0.35200
O322        O  0.07542361  0.73798256  0.67042691    -0.39500
C323        C  0.71992938  0.55316580  0.09594180    -0.13200
C324        C  0.73037600  0.58722488  0.07280284     0.17200
C325        C  0.69908035  0.61335170  0.05899579     0.03500
C326        C  0.65789770  0.60489468  0.06861802    -0.11700
C327        C  0.64732949  0.57066768  0.09212225    -0.02800
C328        C  0.67880567  0.54392663  0.10532336     0.02700
C329        C  0.77405668  0.59318905  0.06170109     0.09500
N330        N  0.70888291  0.64921919  0.03648407     0.65900
H331        H  0.63425674  0.62635344  0.05913233     0.18800
N332        N  0.66942397  0.50781133  0.12819908     0.76400
H333        H  0.74483326  0.53332867  0.10709704     0.10300
C334        C  0.80010759  0.62154581  0.08305768     0.04000
C335        C  0.84247826  0.62215160  0.07397029    -0.04700
C336        C  0.85964832  0.59329052  0.04575479    -0.23100
C337        C  0.83289037  0.56602097  0.02332446     0.13300
C338        C  0.79039839  0.56726484  0.03087977    -0.12200
N339        N  0.78450347  0.64835657  0.11520294     0.64900
H340        H  0.86250719  0.64340577  0.09117780     0.12800
N341        N  0.84765382  0.53716138  0.99256915     0.61600
H342        H  0.77000284  0.54670331  0.01349869     0.08900
O343        O  0.69540276  0.49424287  0.15355309    -0.39900
O344        O  0.63689608  0.48719955  0.12052661    -0.39100
O345        O  0.71269420  0.64637125  0.99792777    -0.39100
O346        O  0.70796474  0.68438688  0.05423637    -0.36800
O347        O  0.86883007  0.50667910  0.00333492    -0.37700
O348        O  0.82974357  0.53524687  0.95795620    -0.33800
O349        O  0.76491408  0.63355996  0.14483060    -0.35200
O350        O  0.79447778  0.68607721  0.11659754    -0.39500
C351        C  0.55309761  0.71504062  0.05494090    -0.13200
C352        C  0.57010521  0.74376931  0.08364108     0.17200
C353        C  0.58236712  0.72986825  0.12247797     0.03500
C354        C  0.57573324  0.68864528  0.13245147    -0.11700
C355        C  0.55897596  0.65911455  0.10392784    -0.02800
C356        C  0.54892997  0.67292703  0.06414857     0.02700
C357        C  0.57073235  0.78900473  0.07581204     0.09500
N358        N  0.60259059  0.75719647  0.15198314     0.65900
H359        H  0.58643354  0.67974837  0.16237658     0.18800
N360        N  0.53598559  0.64454487  0.03213348     0.76400
H361        H  0.54282668  0.72526347  0.02520570     0.10300
C362        C  0.59926359  0.80757195  0.04917809     0.04000
C363        C  0.60339071  0.85102676  0.04957782    -0.04700
C364        C  0.57860701  0.87668829  0.07493255    -0.23100
C365        C  0.54960519  0.85768793  0.10108925     0.13300
C366        C  0.54626566  0.81452607  0.10111228    -0.12200
N367        N  0.62471697  0.78296096  0.02219363     0.64900
H368        H  0.62535270  0.86489787  0.02904935     0.12800
N369        N  0.52526320  0.88101319  0.13016484     0.61600
H370        H  0.52479924  0.80051011  0.12209230     0.08900
O371        O  0.56060624  0.63536214  0.00334850    -0.39900
O372        O  0.49825547  0.63510585  0.02831629    -0.39100
O373        O  0.59398463  0.75553300  0.18970054    -0.39100
O374        O  0.63218464  0.77984424  0.14105304    -0.36800
O375        O  0.49774112  0.90503887  0.11753061    -0.37700
O376        O  0.52331979  0.86924989  0.16673642    -0.33800
O377        O  0.60811813  0.75881970  0.99567141    -0.35200
O378        O  0.66293889  0.79060907  0.01984141    -0.39500
C379        C  0.76474048  0.03454141  0.53342146    -0.13200
C380        C  0.77082160  0.00002644  0.50720682     0.17200
C381        C  0.73601385  0.97862724  0.49085164     0.03500
C382        C  0.69626450  0.99504891  0.49738372    -0.11700
C383        C  0.69084772  0.03355700  0.51769384    -0.02800
C384        C  0.72499191  0.05096468  0.53979096     0.02700
C385        C  0.81378876  0.98878510  0.49566257     0.09500
N386        N  0.74053620  0.94204288  0.46525556     0.65900
H387        H  0.67012879  0.97983292  0.48267550     0.18800
N388        N  0.71989968  0.08653986  0.56680217     0.76400
H389        H  0.79139115  0.04972430  0.54757780     0.10300
C390        C  0.83311278  0.00758122  0.46231449     0.04000
C391        C  0.87475035  0.99945330  0.45361483    -0.04700
C392        C  0.89811903  0.97322532  0.47820475    -0.23100
C393        C  0.87821978  0.95298893  0.51071439     0.13300
C394        C  0.83643058  0.96128349  0.51930272    -0.12200
N395        N  0.81135688  0.03690595  0.43850523     0.64900
H396        H  0.88949039  0.01580074  0.42906412     0.12800
N397        N  0.89995512  0.92390844  0.53510772     0.61600
H398        H  0.82175450  0.94643386  0.54472159     0.08900
O399        O  0.74944626  0.11159368  0.57322176    -0.39900
O400        O  0.68652179  0.09179832  0.58619193    -0.39100
O401        O  0.71621736  0.91189483  0.46934417    -0.39100
O402        O  0.76499013  0.94174871  0.43514996    -0.36800
O403        O  0.91874825  0.89408555  0.51789674    -0.37700
O404        O  0.89697619  0.92550533  0.57377760    -0.33800
O405        O  0.81447624  0.07491227  0.44768801    -0.35200
O406        O  0.79359981  0.02541061  0.40541296    -0.39500
C407        C  0.60897763  0.01834245  0.34701767    -0.13200
C408        C  0.59185549  0.04939252  0.32335699     0.17200
C409        C  0.57751833  0.08571279  0.34357867     0.03500
C410        C  0.58168676  0.09059653  0.38648165    -0.11700
C411        C  0.60031738  0.06009365  0.41017279    -0.02800
C412        C  0.61333573  0.02317053  0.38980785     0.02700
C413        C  0.58977632  0.04244395  0.27782306     0.09500
N414        N  0.55941023  0.11828866  0.32111928     0.65900
H415        H  0.57197087  0.11936441  0.40124823     0.18800
N416        N  0.63306783  0.99090167  0.41132930     0.76400
H417        H  0.61994011  0.99019136  0.33194187     0.10300
C418        C  0.61164193  0.06713097  0.24999482     0.04000
C419        C  0.60902392  0.05765625  0.20741022    -0.04700
C420        C  0.58560751  0.02389418  0.19185763    -0.23100
C421        C  0.56497641  0.99864643  0.21993191     0.13300
C422        C  0.56740066  0.00817355  0.26227589    -0.12200
N423        N  0.63759389  0.10082713  0.26425537     0.64900
H424        H  0.62586314  0.07651182  0.18619195     0.12800
N425        N  0.54362207  0.96180120  0.20657525     0.61600
H426        H  0.55175556  0.98835276  0.28346684     0.08900
O427        O  0.66940733  0.98065867  0.40149484    -0.39900
O428        O  0.61087032  0.96553014  0.42998461    -0.39100
O429        O  0.52147655  0.11626960  0.31203886    -0.39100
O430        O  0.57771152  0.15272801  0.32023643    -0.36800
O431        O  0.54885658  0.92902330  0.22588739    -0.37700
O432        O  0.51402754  0.96378196  0.18131494    -0.33800
O433        O  0.64073328  0.13284889  0.24333879    -0.35200
O434        O  0.66072170  0.09706731  0.29533239    -0.39500
C435        C  0.06004168  0.78898794  0.43788418    -0.13200
C436        C  0.02201369  0.76983274  0.44653418     0.17200
C437        C  0.98684320  0.79478677  0.45352556     0.03500
C438        C  0.99118761  0.83778704  0.45507612    -0.11700
C439        C  0.02967196  0.85667395  0.44952108    -0.02800
C440        C  0.06431077  0.83220472  0.43946937     0.02700
C441        C  0.02188881  0.72492995  0.45488087     0.09500
N442        N  0.94691835  0.77741585  0.46106057     0.65900
H443        H  0.96431161  0.85668298  0.46153213     0.18800
N444        N  0.10424092  0.85039077  0.43318633     0.76400
H445        H  0.08718427  0.77010636  0.43248813     0.10300
C446        C  0.99841152  0.69539283  0.43170361     0.04000
C447        C  0.99996325  0.65372885  0.44240522    -0.04700
C448        C  0.02635573  0.64039078  0.47384481    -0.23100
C449        C  0.04924186  0.66995908  0.49715750     0.13300
C450        C  0.04690511  0.71162815  0.48732679    -0.12200
N451        N  0.97595569  0.70615448  0.39529008     0.64900
H452        H  0.98320494  0.63110439  0.42352032     0.12800
N453        N  0.07570247  0.65795976  0.53020086     0.61600
H454        H  0.06536060  0.73390773  0.50479278     0.08900
O455        O  0.12721873  0.83651554  0.40477660    -0.39900
O456        O  0.11846913  0.87716238  0.45858112    -0.39100
O457        O  0.92919692  0.78648743  0.49453986    -0.39100
O458        O  0.92488051  0.76552947  0.43077851    -0.36800
O459        O  0.06177637  0.63571372  0.55816892    -0.37700
O460        O  0.11233442  0.67152083  0.53280509    -0.33800
O461        O  0.99006861  0.73302951  0.37178535    -0.35200
O462        O  0.94411587  0.68585055  0.38424941    -0.39500
C463        C  0.97555757  0.54161558  0.32396747    -0.13200
C464        C  0.00198682  0.56675431  0.30127279     0.17200
C465        C  0.03390396  0.58883982  0.32192527     0.03500
C466        C  0.04096293  0.58242862  0.36375977    -0.11700
C467        C  0.01661006  0.55490086  0.38648406    -0.02800
C468        C  0.98197861  0.53604821  0.36648299     0.02700
C469        C  0.99678046  0.56861538  0.25589334     0.09500
N470        N  0.05986516  0.61738330  0.30082889     0.65900
H471        H  0.06589152  0.59963150  0.37876383     0.18800
N472        N  0.95323621  0.51124413  0.38838830     0.76400
H473        H  0.95006536  0.52582596  0.30831692     0.10300
C474        C  0.02200193  0.54526997  0.22849692     0.04000
C475        C  0.01535960  0.54728830  0.18601106    -0.04700
C476        C  0.98607138  0.57416082  0.16986163    -0.23100
C477        C  0.96105280  0.59778342  0.19702512     0.13300
C478        C  0.96631308  0.59441024  0.23976126    -0.12200
N479        N  0.05557750  0.52073689  0.24289512     0.64900
H480        H  0.03484341  0.52931743  0.16529352     0.12800
N481        N  0.92933435  0.62407167  0.18170910     0.61600
H482        H  0.94672847  0.61219512  0.26054980     0.08900
O483        O  0.93616242  0.52614998  0.42022097    -0.39900
O484        O  0.93789233  0.47917838  0.37120951    -0.39100
O485        O  0.04449962  0.64147660  0.27513905    -0.39100
O486        O  0.09767192  0.62104950  0.31036346    -0.36800
O487        O  0.90270201  0.60974561  0.15648359    -0.37700
O488        O  0.92520144  0.66024185  0.19659701    -0.33800
O489        O  0.06058733  0.48468551  0.22804975    -0.35200
O490        O  0.08512243  0.53795489  0.26241564    -0.39500
C491        C  0.01091146  0.26754479  0.50983594    -0.13200
C492        C  0.98153610  0.23632518  0.50170311     0.17200
C493        C  0.93960871  0.24729147  0.49685289     0.03500
C494        C  0.92818518  0.28880442  0.50015257    -0.11700
C495        C  0.95798607  0.32072264  0.50329118    -0.02800
C496        C  0.99971375  0.30938424  0.51026625     0.02700
C497        C  0.99420290  0.19225586  0.49949265     0.09500
N498        N  0.90870335  0.21708607  0.48498955     0.65900
H499        H  0.89577562  0.29561353  0.49655124     0.18800
N500        N  0.03137302  0.33978025  0.51698437     0.76400
H501        H  0.04294002  0.25944521  0.51519521     0.10300
C502        C  0.02494220  0.17763370  0.47213060     0.04000
C503        C  0.03193567  0.13508718  0.46741068    -0.04700
C504        C  0.00850880  0.10668143  0.48926401    -0.23100
C505        C  0.97828930  0.12127129  0.51721176     0.13300
C506        C  0.97256119  0.16385977  0.52300688    -0.12200
N507        N  0.04834529  0.20536481  0.44797412     0.64900
H508        H  0.05532552  0.12412167  0.44603222     0.12800
N509        N  0.95115697  0.09357382  0.53773800     0.61600
H510        H  0.94916473  0.17494573  0.54432029     0.08900
O511        O  0.03439338  0.35820963  0.55161650    -0.39900
O512        O  0.06050296  0.34252941  0.49154216    -0.39100
O513        O  0.87289878  0.21914488  0.50017579    -0.39100
O514        O  0.91529407  0.19197252  0.45530275    -0.36800
O515        O  0.93818210  0.10320945  0.57318165    -0.37700
O516        O  0.93446943  0.06359669  0.51813880    -0.33800
O517        O  0.08691048  0.20873453  0.45354122    -0.35200
O518        O  0.03157989  0.22229318  0.41772677    -0.39500
C519        C  0.98018898  0.42649202  0.26047314    -0.13200
C520        C  0.01297652  0.40307213  0.27572259     0.17200
C521        C  0.04101686  0.38443899  0.24790255     0.03500
C522        C  0.03569859  0.38949241  0.20536769    -0.11700
C523        C  0.00240198  0.41242192  0.19016962    -0.02800
C524        C  0.97456011  0.43104683  0.21815161     0.02700
C525        C  0.01350579  0.39514643  0.32034610     0.09500
N526        N  0.07455347  0.36001401  0.26231599     0.65900
H527        H  0.05731762  0.37506122  0.18409634     0.18800
N528        N  0.93823397  0.45122609  0.20387025     0.76400
H529        H  0.95783400  0.43999719  0.28159035     0.10300
C530        C  0.02980514  0.42400072  0.34953463     0.04000
C531        C  0.01599757  0.42396398  0.39051338    -0.04700
C532        C  0.98802875  0.39363110  0.40295948    -0.23100
C533        C  0.97872800  0.36013137  0.37524266     0.13300
C534        C  0.99001109  0.36211292  0.33396494    -0.12200
N535        N  0.05983470  0.45361392  0.33772260     0.64900
H536        H  0.02508741  0.44886522  0.41173200     0.12800
N537        N  0.95629054  0.32475625  0.38829227     0.61600
H538        H  0.97892044  0.33863719  0.31206221     0.08900
O539        O  0.93820544  0.48985981  0.20029830    -0.39900
O540        O  0.90457065  0.43142913  0.20121118    -0.39100
O541        O  0.06734316  0.32632351  0.27939961    -0.39100
O542        O  0.11132654  0.36975160  0.25393925    -0.36800
O543        O  0.97322002  0.30059607  0.41289946    -0.37700
O544        O  0.92351180  0.31356971  0.36972720    -0.33800
O545        O  0.04843983  0.48670106  0.32206007    -0.35200
O546        O  0.09771918  0.44442460  0.33808207    -0.39500
C547        C  0.93215824  0.47344443  0.79467931    -0.13200
C548        C  0.96579489  0.44968766  0.80747242     0.17200
C549        C  0.99036987  0.42945021  0.77720613     0.03500
C550        C  0.97890166  0.43115856  0.73538449    -0.11700
C551        C  0.94248072  0.45115306  0.72314587    -0.02800
C552        C  0.92058864  0.47480218  0.75304636     0.02700
C553        C  0.97132852  0.44357989  0.85250157     0.09500
N554        N  0.02468028  0.40405131  0.78830229     0.65900
H555        H  0.99579871  0.41247540  0.71304783     0.18800
N556        N  0.88450282  0.49755709  0.74188856     0.76400
H557        H  0.91355189  0.48960687  0.81756635     0.10300
C558        C  0.00473568  0.46087216  0.87541802     0.04000
C559        C  0.00574467  0.45780138  0.91841537    -0.04700
C560        C  0.97480479  0.43643202  0.93917813    -0.23100
C561        C  0.94166679  0.41864247  0.91636571     0.13300
C562        C  0.94021623  0.42239487  0.87344844    -0.12200
N563        N  0.03749760  0.48228113  0.85584008     0.64900
H564        H  0.03109863  0.47190194  0.93568991     0.12800
N565        N  0.90795966  0.39911886  0.93661884     0.61600
H566        H  0.91400347  0.40958616  0.85636981     0.08900
O567        O  0.88596413  0.52211250  0.71257504    -0.39900
O568        O  0.85192323  0.49521774  0.76291676    -0.39100
O569        O  0.02084760  0.37794064  0.81603493    -0.39100
O570        O  0.05725579  0.40418218  0.76708523    -0.36800
O571        O  0.88636431  0.41963480  0.96210432    -0.37700
O572        O  0.89631618  0.36336311  0.92507708    -0.33800
O573        O  0.04079318  0.52076685  0.86188309    -0.35200
O574        O  0.06871490  0.46223365  0.84365894    -0.39500
C575        C  0.93691761  0.27153372  0.60849100    -0.13200
C576        C  0.97693686  0.26500690  0.62383385     0.17200
C577        C  0.00152730  0.29947490  0.63563788     0.03500
C578        C  0.98433812  0.33928585  0.63564724    -0.11700
C579        C  0.94260298  0.34536223  0.62483929    -0.02800
C580        C  0.91962935  0.31127388  0.60831619     0.02700
C581        C  0.99100772  0.22188711  0.62998747     0.09500
N582        N  0.04264791  0.29427054  0.65123224     0.65900
H583        H  0.00255689  0.36489663  0.64817674     0.18800
N584        N  0.87827809  0.31634775  0.59277164     0.76400
H585        H  0.91861352  0.24523414  0.59765234     0.10300
C586        C  0.97020563  0.19663277  0.65784266     0.04000
C587        C  0.98180077  0.15531547  0.66147947    -0.04700
C588        C  0.01385285  0.13819938  0.63778058    -0.23100
C589        C  0.03616604  0.16382063  0.61128558     0.13300
C590        C  0.02434547  0.20538867  0.60744629    -0.12200
N591        N  0.93703902  0.21256836  0.68255257     0.64900
H592        H  0.96476153  0.13607543  0.68218764     0.12800
N593        N  0.07156692  0.14842441  0.58939458     0.61600
H594        H  0.04107947  0.22486737  0.58674527     0.08900
O595        O  0.85160694  0.28814271  0.59650857    -0.39900
O596        O  0.86886206  0.34809862  0.57328762    -0.39100
O597        O  0.07227998  0.31427485  0.63633740    -0.39100
O598        O  0.04884426  0.27275979  0.68235618    -0.36800
O599        O  0.07836818  0.15931192  0.55313973    -0.37700
O600        O  0.09890858  0.12840788  0.60808717    -0.33800
O601        O  0.90237144  0.19446779  0.68210461    -0.35200
O602        O  0.94327684  0.24282755  0.70722426    -0.39500
C603        C  0.72096213  0.46209631  0.02887591    -0.13200
C604        C  0.72976303  0.42918652  0.05444596     0.17200
C605        C  0.69783536  0.40204627  0.06534546     0.03500
C606        C  0.65833516  0.40703392  0.04830628    -0.11700
C607        C  0.64993534  0.43878431  0.02086126    -0.02800
C608        C  0.68127730  0.46767413  0.01231520     0.02700
C609        C  0.77353293  0.42202495  0.06545784     0.09500
N610        N  0.70537660  0.36862723  0.09234168     0.65900
H611        H  0.63451650  0.38472039  0.05521299     0.18800
N612        N  0.67357003  0.50200556  0.98637945     0.76400
H613        H  0.74573305  0.48263283  0.02070128     0.10300
C614        C  0.79609565  0.38882142  0.04780466     0.04000
C615        C  0.83914276  0.38770286  0.05326292    -0.04700
C616        C  0.86028421  0.41977508  0.07476670    -0.23100
C617        C  0.83703277  0.45109800  0.09506728     0.13300
C618        C  0.79409002  0.45128648  0.09056781    -0.12200
N619        N  0.77622941  0.35734877  0.02262045     0.64900
H620        H  0.85643823  0.36309439  0.03796649     0.12800
N621        N  0.85623169  0.48273716  0.12037315     0.61600
H622        H  0.77627964  0.47591976  0.10618364     0.08900
O623        O  0.70234208  0.51667208  0.96510719    -0.39900
O624        O  0.63899280  0.51998599  0.98721046    -0.39100
O625        O  0.72652336  0.37454026  0.12477595    -0.39100
O626        O  0.68824255  0.33396482  0.08556125    -0.36800
O627        O  0.87212511  0.51359184  0.10370207    -0.37700
O628        O  0.84718320  0.48549988  0.15804053    -0.33800
O629        O  0.75376250  0.36698864  0.99254865    -0.35200
O630        O  0.78454811  0.31983843  0.02779219    -0.39500
C631        C  0.59806234  0.27203545  0.98380225    -0.13200
C632        C  0.57643371  0.25908043  0.01807859     0.17200
C633        C  0.55324485  0.28829244  0.04099475     0.03500
C634        C  0.54956278  0.32905494  0.02755662    -0.11700
C635        C  0.57022455  0.34216528  0.99222524    -0.02800
C636        C  0.59600649  0.31284408  0.97101189     0.02700
C637        C  0.57851384  0.21477884  0.02888376     0.09500
N638        N  0.53474520  0.27740722  0.07888518     0.65900
H639        H  0.53130125  0.35091341  0.04552610     0.18800
N640        N  0.62298684  0.32396355  0.93843576     0.76400
H641        H  0.61755555  0.25021025  0.96712015     0.10300
C642        C  0.55530099  0.18428130  0.00664616     0.04000
C643        C  0.55816699  0.14288685  0.01754299    -0.04700
C644        C  0.58500673  0.13044187  0.04875760    -0.23100
C645        C  0.60870239  0.16060175  0.07054898     0.13300
C646        C  0.60493782  0.20250534  0.06081582    -0.12200
N647        N  0.52887475  0.19436166  0.97275902     0.64900
H648        H  0.54015889  0.11979928  0.00038460     0.12800
N649        N  0.63528983  0.14937319  0.10359610     0.61600
H650        H  0.62300288  0.22553326  0.07795040     0.08900
O651        O  0.65576000  0.34388008  0.94690862    -0.39900
O652        O  0.61922768  0.30605457  0.90357592    -0.39100
O653        O  0.55538467  0.28104450  0.11187393    -0.39100
O654        O  0.49632535  0.27102075  0.08039896    -0.36800
O655        O  0.67298509  0.14202098  0.09684042    -0.37700
O656        O  0.62244765  0.15197316  0.14013408    -0.33800
O657        O  0.54302050  0.21462851  0.94344826    -0.35200
O658        O  0.49493247  0.17543503  0.96763432    -0.39500
C659        C  0.21248138  0.03431086  0.50227134    -0.13200
C660        C  0.23703424  0.02653864  0.46741717     0.17200
C661        C  0.21766053  0.00906999  0.43159955     0.03500
C662        C  0.17552445  0.99789311  0.43247095    -0.11700
C663        C  0.15095057  0.00714307  0.46696465    -0.02800
C664        C  0.16932550  0.02863646  0.50119530     0.02700
C665        C  0.28247636  0.03703662  0.46911804     0.09500
N666        N  0.23964528  0.00418614  0.39359987     0.65900
H667        H  0.16150928  0.98323519  0.40537604     0.18800
N668        N  0.14471396  0.04878037  0.53274194     0.76400
H669        H  0.22671770  0.04721417  0.52999188     0.10300
C670        C  0.29771134  0.07425774  0.48789949     0.04000
C671        C  0.34043530  0.08228492  0.48914089    -0.04700
C672        C  0.36911338  0.05527736  0.47040827    -0.23100
C673        C  0.35386991  0.01808793  0.45183997     0.13300
C674        C  0.31137803  0.00888665  0.45256858    -0.12200
N675        N  0.27042273  0.10524441  0.50444134     0.64900
H676        H  0.35107775  0.11079983  0.50395370     0.12800
N677        N  0.38050840  0.99013550  0.43008127     0.61600
H678        H  0.30087943  0.97965764  0.43913022     0.08900
O679        O  0.10998699  0.06379858  0.52364588    -0.39900
O680        O  0.16150218  0.06073360  0.56619161    -0.39100
O681        O  0.23611303  0.97116896  0.37220572    -0.39100
O682        O  0.25866146  0.03449995  0.37905735    -0.36800
O683        O  0.39216873  0.95770112  0.44712630    -0.37700
O684        O  0.38343132  0.99246098  0.39155150    -0.33800
O685        O  0.27718852  0.12113587  0.53979814    -0.35200
O686        O  0.24191680  0.11952807  0.48239110    -0.39500
C687        C  0.46873222  0.01230466  0.31964586    -0.13200
C688        C  0.44732971  0.04026562  0.29513039     0.17200
C689        C  0.43074976  0.07620406  0.31398372     0.03500
C690        C  0.43769487  0.08422775  0.35607148    -0.11700
C691        C  0.46001444  0.05688302  0.38107563    -0.02800
C692        C  0.47471227  0.01993325  0.36223153     0.02700
C693        C  0.44208245  0.03107164  0.25017078     0.09500
N694        N  0.40541188  0.10415370  0.29143549     0.65900
H695        H  0.42354189  0.11160449  0.36951576     0.18800
N696        N  0.49428248  0.98903076  0.38585582     0.76400
H697        H  0.48023417  0.98386159  0.30567910     0.10300
C698        C  0.46131300  0.05537792  0.22037193     0.04000
C699        C  0.45748726  0.04436262  0.17860487    -0.04700
C700        C  0.43239469  0.01122765  0.16518415    -0.23100
C701        C  0.41146295  0.98804708  0.19458712     0.13300
C702        C  0.41710782  0.99756598  0.23677395    -0.12200
N703        N  0.48426484  0.09179829  0.23160405     0.64900
H704        H  0.47371441  0.06246295  0.15632478     0.12800
N705        N  0.38603785  0.95367347  0.18217281     0.61600
H706        H  0.40174766  0.97889026  0.25919639     0.08900
O707        O  0.47201210  0.96520328  0.40627900    -0.39900
O708        O  0.53052313  0.97791095  0.37687392    -0.39100
O709        O  0.37849069  0.09046185  0.26616775    -0.39100
O710        O  0.40690138  0.14245011  0.29980389    -0.36800
O711        O  0.40257883  0.91958624  0.17247801    -0.37700
O712        O  0.34731367  0.95567322  0.18644260    -0.33800
O713        O  0.52307605  0.09113826  0.22849045    -0.35200
O714        O  0.46619764  0.12620014  0.23096941    -0.39500
C715        C  0.41668795  0.99922272  0.75191876    -0.13200
C716        C  0.43756648  0.97571335  0.78089394     0.17200
C717        C  0.46414409  0.94363787  0.76690438     0.03500
C718        C  0.46893847  0.93613760  0.72441921    -0.11700
C719        C  0.44668750  0.95840286  0.69524312    -0.02800
C720        C  0.42133775  0.99136443  0.70950071     0.02700
C721        C  0.42893258  0.98270737  0.82547740     0.09500
N722        N  0.48458209  0.91685471  0.79507146     0.65900
H723        H  0.48902739  0.91132342  0.71399953     0.18800
N724        N  0.39846121  0.01597875  0.68166017     0.76400
H725        H  0.39578270  0.02335524  0.76236462     0.10300
C726        C  0.44913309  0.01436565  0.84901694     0.04000
C727        C  0.44720451  0.01401642  0.89216459    -0.04700
C728        C  0.42457550  0.98376163  0.91239324    -0.23100
C729        C  0.40282730  0.95346844  0.88886989     0.13300
C730        C  0.40509737  0.95322934  0.84574082    -0.12200
N731        N  0.47261242  0.04624799  0.82995062     0.64900
H732        H  0.46324643  0.03786909  0.91021539     0.12800
N733        N  0.38137097  0.92077399  0.90833876     0.61600
H734        H  0.39016458  0.92845833  0.82798446     0.08900
O735        O  0.35942504  0.01513163  0.68213006    -0.39900
O736        O  0.41669595  0.04447868  0.66329112    -0.39100
O737        O  0.49482081  0.92964212  0.83070911    -0.39100
O738        O  0.49266764  0.88001242  0.78429617    -0.36800
O739        O  0.40150458  0.89419263  0.92763706    -0.37700
O740        O  0.34312989  0.91547982  0.90200103    -0.33800
O741        O  0.45781348  0.06466131  0.79961021    -0.35200
O742        O  0.50464084  0.06084753  0.84754046    -0.39500
C743        C  0.29912542  0.99349980  0.58608577    -0.13200
C744        C  0.27107222  0.97016770  0.60870497     0.17200
C745        C  0.28488479  0.93382661  0.62690280     0.03500
C746        C  0.32609858  0.92159808  0.62242783    -0.11700
C747        C  0.35493883  0.94527142  0.60065041    -0.02800
C748        C  0.34088699  0.98165584  0.58237272     0.02700
C749        C  0.22674990  0.98203159  0.61147390     0.09500
N750        N  0.25770154  0.90975414  0.65138783     0.65900
H751        H  0.33584030  0.89450091  0.63844431     0.18800
N752        N  0.36870246  0.00694931  0.56015639     0.76400
H753        H  0.28852996  0.02100313  0.57120690     0.10300
C754        C  0.21286001  0.01252581  0.64012073     0.04000
C755        C  0.17008892  0.01793772  0.64645855    -0.04700
C756        C  0.14086274  0.99382500  0.62429056    -0.23100
C757        C  0.15503041  0.96244467  0.59675611     0.13300
C758        C  0.19754340  0.95746056  0.59001911    -0.12200
N759        N  0.24172338  0.03727075  0.66384586     0.64900
H760        H  0.15962374  0.04182659  0.66794661     0.12800
N761        N  0.12700747  0.93207688  0.57976921     0.61600
H762        H  0.20804047  0.93245799  0.56982010     0.08900
O763        O  0.39219438  0.99090149  0.53334725    -0.39900
O764        O  0.36990460  0.04542359  0.56732408    -0.39100
O765        O  0.25500334  0.87121107  0.64504079    -0.39100
O766        O  0.24016201  0.92614656  0.68233667    -0.36800
O767        O  0.10598793  0.91092776  0.60401641    -0.37700
O768        O  0.13044791  0.91978826  0.54275401    -0.33800
O769        O  0.26948373  0.05751822  0.64613832    -0.35200
O770        O  0.23685833  0.04238781  0.70213000    -0.39500
C771        C  0.45775423  0.79612251  0.04020049    -0.13200
C772        C  0.43526986  0.78099637  0.07330868     0.17200
C773        C  0.41116048  0.80880390  0.09717408     0.03500
C774        C  0.40939838  0.85058599  0.08728757    -0.11700
C775        C  0.43242936  0.86596853  0.05464127    -0.02800
C776        C  0.45686991  0.83822157  0.03105400     0.02700
C777        C  0.43674392  0.73621857  0.08249605     0.09500
N778        N  0.38759685  0.79488101  0.13111557     0.65900
H779        H  0.39026236  0.87128300  0.10564926     0.18800
N780        N  0.48038109  0.85208856  0.99722874     0.76400
H781        H  0.47662714  0.77523324  0.02173105     0.10300
C782        C  0.42272589  0.70573886  0.05380591     0.04000
C783        C  0.42064985  0.66427395  0.06487955    -0.04700
C784        C  0.43173446  0.65216091  0.10462923    -0.23100
C785        C  0.44881440  0.68252550  0.13244284     0.13300
C786        C  0.45117004  0.72394829  0.12092877    -0.12200
N787        N  0.40700032  0.71688458  0.01453629     0.64900
H788        H  0.40728743  0.64200634  0.04306294     0.12800
N789        N  0.46189852  0.67239654  0.17316242     0.61600
H790        H  0.46353369  0.74700738  0.14255814     0.08900
O791        O  0.51555896  0.86783089  0.00404207    -0.39900
O792        O  0.47079210  0.83987018  0.96118932    -0.39100
O793        O  0.40135506  0.80049283  0.16726602    -0.39100
O794        O  0.35049796  0.78365646  0.12557195    -0.36800
O795        O  0.48134998  0.63944882  0.17918215    -0.37700
O796        O  0.45431269  0.69662992  0.20331094    -0.33800
O797        O  0.42566204  0.70541196  0.98223172    -0.35200
O798        O  0.37174781  0.73322226  0.01188862    -0.39500
C799        C  0.25908811  0.53088210  0.08363838    -0.13200
C800        C  0.24551323  0.56240771  0.05813378     0.17200
C801        C  0.27518663  0.59066353  0.04358510     0.03500
C802        C  0.31679618  0.58702336  0.05586092    -0.11700
C803        C  0.32899918  0.55771990  0.08445847    -0.02800
C804        C  0.30003331  0.52851783  0.09720102     0.02700
C805        C  0.19983032  0.56738840  0.05266216     0.09500
N806        N  0.26337913  0.62600083  0.02082846     0.65900
H807        H  0.33858683  0.61059396  0.04709751     0.18800
N808        N  0.31107038  0.49843318  0.12654468     0.76400
H809        H  0.23703741  0.50870551  0.09431133     0.10300
C810        C  0.18000959  0.57436876  0.01443007     0.04000
C811        C  0.13690524  0.57978079  0.01311324    -0.04700
C812        C  0.11311378  0.57775796  0.04881764    -0.23100
C813        C  0.13245911  0.57037722  0.08668306     0.13300
C814        C  0.17533351  0.56554186  0.08821081    -0.12200
N815        N  0.20254332  0.57576287  0.97671336     0.64900
H816        H  0.12174011  0.58470837  0.98385734     0.12800
N817        N  0.10911150  0.56790364  0.12390599     0.61600
H818        H  0.18979639  0.56118087  0.11790721     0.08900
O819        O  0.29531041  0.49982697  0.16195895    -0.39900
O820        O  0.33510577  0.46931654  0.11648327    -0.39100
O821        O  0.23442999  0.64898649  0.03356622    -0.39100
O822        O  0.28587165  0.63786603  0.99184402    -0.36800
O823        O  0.11744988  0.54047229  0.14937082    -0.37700
O824        O  0.08402240  0.59615939  0.13387779    -0.33800
O825        O  0.21972575  0.54361406  0.96246009    -0.35200
O826        O  0.19757310  0.60587490  0.95351751    -0.39500
C827        C  0.43533373  0.18911842  0.05632677    -0.13200
C828        C  0.41677043  0.20636079  0.02170314     0.17200
C829        C  0.39803737  0.17947262  0.99173319     0.03500
C830        C  0.39962090  0.13642819  0.99635806    -0.11700
C831        C  0.41944574  0.11943834  0.03034211    -0.02800
C832        C  0.43696975  0.14621833  0.06069621     0.02700
C833        C  0.42079218  0.25178881  0.01525111     0.09500
N834        N  0.37719283  0.19540292  0.95658952     0.65900
H835        H  0.38557490  0.11608801  0.97309771     0.18800
N836        N  0.45529039  0.13030824  0.09693441     0.76400
H837        H  0.44934269  0.20892742  0.07991080     0.10300
C838        C  0.40772992  0.28188575  0.04473965     0.04000
C839        C  0.41187032  0.32414264  0.03660395    -0.04700
C840        C  0.42743056  0.33733968  0.99884953    -0.23100
C841        C  0.44417277  0.30722330  0.97114886     0.13300
C842        C  0.44009532  0.26510019  0.97944897    -0.12200
N843        N  0.38766699  0.27017538  0.08178502     0.64900
H844        H  0.39938228  0.34653004  0.05851002     0.12800
N845        N  0.46410029  0.31885909  0.93381667     0.61600
H846        H  0.45186206  0.24240942  0.95745603     0.08900
O847        O  0.49416705  0.12866636  0.10009848    -0.39900
O848        O  0.43335503  0.12633529  0.12852064    -0.39100
O849        O  0.38320008  0.17940036  0.92126102    -0.39100
O850        O  0.35039096  0.22336590  0.96114782    -0.36800
O851        O  0.46148676  0.29587683  0.90181875    -0.37700
O852        O  0.48576087  0.35132969  0.93308910    -0.33800
O853        O  0.39876869  0.28633535  0.11593014    -0.35200
O854        O  0.35574701  0.24758674  0.07993545    -0.39500
C855        C  0.26107255  0.46418295  0.01446492    -0.13200
C856        C  0.24532572  0.43292174  0.03898109     0.17200
C857        C  0.27251878  0.40176471  0.05211855     0.03500
C858        C  0.31445229  0.40361456  0.04109704    -0.11700
C859        C  0.32918001  0.43379039  0.01469145    -0.02800
C860        C  0.30224279  0.46473958  0.00187569     0.02700
C861        C  0.19973861  0.43180348  0.04565858     0.09500
N862        N  0.25766056  0.36559277  0.07189327     0.65900
H863        H  0.33447674  0.37840116  0.04908737     0.18800
N864        N  0.31557633  0.49513851  0.97376516     0.76400
H865        H  0.24063967  0.48792577  0.00421048     0.10300
C866        C  0.18124821  0.42670327  0.08461292     0.04000
C867        C  0.13800848  0.42487320  0.08758561    -0.04700
C868        C  0.11289041  0.42877833  0.05273105    -0.23100
C869        C  0.13095765  0.43523539  0.01436336     0.13300
C870        C  0.17393864  0.43634586  0.01107962    -0.12200
N871        N  0.20537075  0.42393767  0.12146877     0.64900
H872        H  0.12392525  0.42081544  0.11736267     0.12800
N873        N  0.10607684  0.44085715  0.97846495     0.61600
H874        H  0.18727551  0.44011533  0.98093025     0.08900
O875        O  0.29701263  0.49878518  0.93981663    -0.39900
O876        O  0.34568993  0.51864847  0.98294119    -0.39100
O877        O  0.22513353  0.34758823  0.05902030    -0.39100
O878        O  0.28021373  0.34799419  0.09783961    -0.36800
O879        O  0.10995262  0.47339797  0.95847739    -0.37700
O880        O  0.08529950  0.41098244  0.96327040    -0.33800
O881        O  0.21527670  0.45670690  0.14107353    -0.35200
O882        O  0.20501403  0.39057090  0.14044358    -0.39500
loop_ 
_geom_bond_atom_site_label_1 
_geom_bond_atom_site_label_2 
_geom_bond_distance 
_geom_bond_site_symmetry_2 
_ccdc_geom_bond_type 
O1           Cu9   2.020       .  S
O1           C11   1.282       .  A
O2           Cu9   2.023       .  S
O2           C12   1.276       .  A
O3           Cu9   2.027       .  S
O3           C13   1.284       .  A
O4           Cu9   2.039       .  S
O4           C14   1.279       .  A
O5          Cu10   2.021       .  S
O5           C14   1.282       .  A
O6          Cu10   2.026       .  S
O6           C13   1.276       .  A
O7          Cu10   2.028       .  S
O7           C12   1.285       .  A
O8          Cu10   2.041       .  S
O8           C11   1.279       .  A
Cu9         Cu10   2.370       .  S
C11          N43   1.444       .  S
C12         N148   1.448       .  S
C13          N85   1.443       .  S
C14          N50   1.442       .  S
O15         Cu23   2.027       .  S
O15          C25   1.276   1_565  A
O16         Cu23   2.017       .  S
O16          C26   1.281       .  A
O17         Cu23   2.051       .  S
O17          C27   1.280   1_565  A
O18         Cu23   2.033       .  S
O18          C28   1.287       .  A
O19         Cu24   2.031       .  S
O19          C28   1.276   1_545  A
O20         Cu24   2.036       .  S
O20          C27   1.285       .  A
O21         Cu24   2.046       .  S
O21          C26   1.280   1_545  A
O22         Cu24   2.042       .  S
O22          C25   1.284       .  A
Cu23        Cu24   2.366   1_565  S
C25         N127   1.446       .  S
C26          N57   1.450       .  S
C27          N78   1.460       .  S
C28         N162   1.452       .  S
O29         Cu37   2.012       .  S
O29          C39   1.283   1_455  A
O30         Cu37   2.032   1_655  S
O30          C40   1.277       .  A
O31         Cu37   2.066       .  S
O31          C41   1.283   1_455  A
O32         Cu37   2.070       .  S
O32          C42   1.284   1_455  A
O33         Cu38   1.975       .  S
O33          C42   1.276       .  A
O34         Cu38   1.976       .  S
O34          C41   1.278       .  A
O35         Cu38   2.034       .  S
O35          C40   1.283       .  A
O36         Cu38   2.038       .  S
O36          C39   1.278       .  A
Cu37        Cu38   2.367   1_455  S
C39         N120   1.450   1_655  S
C40          N92   1.443       .  S
C41         N113   1.451       .  S
C42         N155   1.446       .  S
N43          C47   1.356   1_554  A
N43          C44   1.365   1_554  A
C44          C45   1.389       .  A
C44         C840   1.501       .  S
C45          C46   1.364       .  A
C45          H48   1.082       .  S
C46          C47   1.378       .  A
C46          H49   1.083       .  S
C47         C859   1.475   1_556  S
N50          C54   1.355       .  A
N50          C51   1.366       .  A
C51          C52   1.387       .  A
C51         C784   1.500       .  S
C52          C53   1.365       .  A
C52          H55   1.081       .  S
C53          C54   1.380       .  A
C53          H56   1.083       .  S
C54         C803   1.478       .  S
N57          C61   1.363       .  A
N57          C58   1.359       .  A
C58          C59   1.386       .  A
C58         C719   1.498       .  S
C59          C60   1.367       .  A
C59          H62   1.082       .  S
C60          C61   1.387       .  A
C60          H63   1.083       .  S
C61         C747   1.502       .  S
O64         Cu72   2.025   1_545  S
O64          C74   1.279       .  A
O65         Cu72   2.036       .  S
O65          C75   1.280       .  A
O66         Cu72   2.000   1_556  S
O66          C76   1.276       .  A
O67         Cu72   2.000   1_545  S
O67          C77   1.276       .  A
O68         Cu73   2.034       .  S
O68          C77   1.280   1_565  A
O69         Cu73   2.035   1_556  S
O69          C76   1.281       .  A
O70         Cu73   2.016       .  S
O70          C75   1.278       .  A
O71         Cu73   2.028   1_545  S
O71          C74   1.279       .  A
Cu72        Cu73   2.370       .  S
C74         C831   1.484       .  S
C75         C775   1.489       .  S
C76         C728   1.480       .  S
C77         C700   1.479       .  S
N78          C82   1.362       .  A
N78          C79   1.366       .  A
C79          C80   1.392       .  A
C79         C691   1.515       .  S
C80          C81   1.370       .  A
C80          H83   1.083       .  S
C81          C82   1.385       .  A
C81          H84   1.081       .  S
C82         C672   1.502       .  S
N85          C89   1.351   1_554  A
N85          C86   1.359   1_554  A
C86          C87   1.387       .  A
C86         C635   1.511       .  S
C87          C88   1.373       .  A
C87          H90   1.081       .  S
C88          C89   1.383       .  A
C88          H91   1.082       .  S
C89         C607   1.482   1_556  S
N92          C96   1.361       .  A
N92          C93   1.364       .  A
C93          C94   1.385       .  A
C93         C551   1.497       .  S
C94          C95   1.366       .  A
C94          H97   1.083       .  S
C95          C96   1.383       .  A
C95          H98   1.082       .  S
C96         C579   1.497       .  S
O99        Cu107   2.000   1_455  S
O99         C109   1.275       .  A
O100       Cu107   2.002       .  S
O100        C110   1.276       .  A
O101       Cu107   2.014       .  S
O101        C111   1.278       .  A
O102       Cu107   2.023       .  S
O102        C112   1.278   1_554  A
O103       Cu108   2.025   1_556  S
O103        C112   1.279       .  A
O104       Cu108   2.022       .  S
O104        C111   1.279       .  A
O105       Cu108   2.008       .  S
O105        C110   1.278       .  A
O106       Cu108   2.003   1_455  S
O106        C109   1.276       .  A
Cu107      Cu108   2.373       .  S
C109        C868   1.461       .  S
C110        C616   1.480       .  S
C111        C523   1.479   1_655  S
C112        C560   1.482       .  S
N113        C117   1.365       .  A
N113        C114   1.362       .  A
C114        C115   1.383       .  A
C114        C532   1.492       .  S
C115        C116   1.364       .  A
C115        H118   1.083       .  S
C116        C117   1.396       .  A
C116        H119   1.079       .  S
C117        C495   1.507       .  S
N120        C124   1.357       .  A
N120        C121   1.363       .  A
C121        C122   1.393       .  A
C121        C467   1.511       .  S
C122        C123   1.373       .  A
C122        H125   1.083       .  S
C123        C124   1.385       .  A
C123        H126   1.082       .  S
C124        C448   1.486       .  S
N127        C131   1.365       .  A
N127        C128   1.362       .  A
C128        C129   1.380       .  A
C128        C411   1.494       .  S
C129        C130   1.364       .  A
C129        H132   1.083       .  S
C130        C131   1.388       .  A
C130        H133   1.082       .  S
C131        C383   1.502       .  S
O134       Cu142   1.998   1_655  S
O134        C144   1.276       .  A
O135       Cu142   2.006       .  S
O135        C145   1.277       .  A
O136       Cu142   2.009   1_545  S
O136        C146   1.278       .  A
O137       Cu142   2.008       .  S
O137        C147   1.278       .  A
O138       Cu143   2.014       .  S
O138        C147   1.277       .  A
O139       Cu143   2.004   1_545  S
O139        C146   1.276       .  A
O140       Cu143   2.031       .  S
O140        C145   1.281       .  A
O141       Cu143   2.034   1_655  S
O141        C144   1.282       .  A
Cu142      Cu143   2.372       .  S
C144        C392   1.487       .  S
C145        C663   1.490   1_565  S
C146        C504   1.473       .  S
C147        C439   1.470       .  S
N148        C152   1.354       .  A
N148        C149   1.362       .  A
C149        C150   1.394       .  A
C149        C355   1.518       .  S
C150        C151   1.368       .  A
C150        H153   1.081       .  S
C151        C152   1.381       .  A
C151        H154   1.083       .  S
C152        C327   1.477       .  S
N155        C159   1.360       .  A
N155        C156   1.358       .  A
C156        C157   1.384       .  A
C156        C271   1.491       .  S
C157        C158   1.367       .  A
C157        H160   1.082       .  S
C158        C159   1.389       .  A
C158        H161   1.082       .  S
C159        C308   1.486       .  S
N162        C166   1.356       .  A
N162        C163   1.365       .  A
C163        C164   1.393       .  A
C163        C252   1.519       .  S
C164        C165   1.371       .  A
C164        H167   1.083       .  S
C165        C166   1.381       .  A
C165        H168   1.082       .  S
C166        C224   1.483       .  S
O169       Cu177   1.996       .  S
O169        C179   1.276       .  A
O170       Cu177   2.002   1_565  S
O170        C180   1.274       .  A
O171       Cu177   2.033       .  S
O171        C181   1.280       .  A
O172       Cu177   2.033   1_565  S
O172        C182   1.280   1_554  A
O173       Cu178   2.027   1_565  S
O173        C182   1.278   1_554  A
O174       Cu178   2.023       .  S
O174        C181   1.278       .  A
O175       Cu178   2.063   1_565  S
O175        C180   1.285       .  A
O176       Cu178   2.041       .  S
O176        C179   1.281       .  A
Cu177      Cu178   2.367       .  S
C179        C644   1.483       .  S
C180        C364   1.497       .  S
C181        C420   1.488       .  S
C182        C243   1.486       .  S
O183       Cu191   2.035       .  S
O183        C193   1.280       .  A
O184       Cu191   2.016   1_655  S
O184        C194   1.278       .  A
O185       Cu191   2.016   1_565  S
O185        C195   1.278       .  A
O186       Cu191   2.025       .  S
O186        C196   1.280       .  A
O187       Cu192   2.015       .  S
O187        C196   1.277       .  A
O188       Cu192   2.001   1_565  S
O188        C195   1.277       .  A
O189       Cu192   2.027   1_655  S
O189        C194   1.279       .  A
O190       Cu192   2.017       .  S
O190        C193   1.279       .  A
Cu191      Cu192   2.369       .  S
C193        C756   1.488   1_545  S
C194        C215   1.479       .  S
C195        C299   1.479       .  S
C196        C588   1.483       .  S
O197       Cu205   2.007       .  S
O197        C207   1.277       .  A
O198       Cu205   2.011   1_455  S
O198        C208   1.277       .  A
O199       Cu205   2.024   1_556  S
O199        C209   1.279       .  A
O200       Cu205   2.026       .  S
O200        C210   1.280       .  A
O201       Cu206   2.006       .  S
O201        C210   1.277       .  A
O202       Cu206   1.998   1_556  S
O202        C209   1.275       .  A
O203       Cu206   2.002   1_455  S
O203        C208   1.276       .  A
O204       Cu206   2.003       .  S
O204        C207   1.276       .  A
Cu205      Cu206   2.373       .  S
C207        C336   1.479       .  S
C208        C812   1.466       .  S
C209        C280   1.478       .  S
C210        C476   1.479       .  S
C211        C212   1.402   1_545  A
C211        C216   1.407       .  A
C211        H221   1.083       .  S
C212        C213   1.407       .  A
C212        C217   1.483       .  S
C213        N218   1.429       .  S
C213        C214   1.399       .  A
C214        C215   1.402   1_565  A
C214        H219   1.083       .  S
C215        C216   1.415       .  A
C216        N220   1.434       .  S
C217        C222   1.408       .  A
C217        C226   1.402       .  A
N218        O233   1.262       .  A
N218        O234   1.262       .  A
N220        O231   1.262       .  A
N220        O232   1.263       .  A
C222        N227   1.433   1_565  S
C222        C223   1.402       .  A
C223        C224   1.407       .  A
C223        H228   1.084   1_565  S
C224        C225   1.413       .  A
C225        N229   1.438       .  S
C225        C226   1.405       .  A
C226        H230   1.081       .  S
N227        O237   1.262       .  A
N227        O238   1.263       .  A
N229        O235   1.263       .  A
N229        O236   1.262       .  A
C239        C240   1.406       .  A
C239        C244   1.400       .  A
C239        H249   1.082       .  S
C240        C241   1.417   1_565  A
C240        C245   1.506       .  S
C241        N246   1.431       .  S
C241        C242   1.414       .  A
C242        C243   1.407   1_545  A
C242        H247   1.084       .  S
C243        C244   1.405       .  A
C244        N248   1.429       .  S
C245        C250   1.412       .  A
C245        C254   1.410   1_565  A
N246        O261   1.262       .  A
N246        O262   1.262       .  A
N248        O259   1.262       .  A
N248        O260   1.262       .  A
C250        N255   1.438       .  S
C250        C251   1.399       .  A
C251        C252   1.415       .  A
C251        H256   1.081       .  S
C252        C253   1.417       .  A
C253        N257   1.431   1_565  S
C253        C254   1.417   1_565  A
C254        H258   1.082       .  S
N255        O265   1.263       .  A
N255        O266   1.263       .  A
N257        O263   1.261       .  A
N257        O264   1.262       .  A
C267        C268   1.395       .  A
C267        C272   1.395       .  A
C267        H277   1.085       .  S
C268        C269   1.411       .  A
C268        C273   1.476       .  S
C269        N274   1.435   1_655  S
C269        C270   1.407       .  A
C270        C271   1.403       .  A
C270        H275   1.084       .  S
C271        C272   1.425       .  A
C272        N276   1.433       .  S
C273        C278   1.411   1_655  A
C273        C282   1.396       .  A
N274        O289   1.262       .  A
N274        O290   1.262       .  A
N276        O287   1.262       .  A
N276        O288   1.262       .  A
C278        N283   1.435       .  S
C278        C279   1.408       .  A
C279        C280   1.407   1_455  A
C279        H284   1.084       .  S
C280        C281   1.414       .  A
C281        N285   1.432       .  S
C281        C282   1.395       .  A
C282        H286   1.084       .  S
N283        O293   1.262       .  A
N283        O294   1.262       .  A
N285        O291   1.262       .  A
N285        O292   1.260       .  A
C295        C296   1.403   1_655  A
C295        C300   1.404       .  A
C295        H305   1.084       .  S
C296        C297   1.407       .  A
C296        C301   1.479   1_455  S
C297        N302   1.436       .  S
C297        C298   1.400       .  A
C298        C299   1.403       .  A
C298        H303   1.082       .  S
C299        C300   1.414   1_455  A
C300        N304   1.432       .  S
C301        C306   1.404   1_655  A
C301        C310   1.400       .  A
N302        O317   1.261       .  A
N302        O318   1.262       .  A
N304        O315   1.262       .  A
N304        O316   1.262       .  A
C306        N311   1.429       .  S
C306        C307   1.399   1_455  A
C307        C308   1.409       .  A
C307        H312   1.083   1_655  S
C308        C309   1.414       .  A
C309        N313   1.437       .  S
C309        C310   1.403       .  A
C310        H314   1.080       .  S
N311        O321   1.262       .  A
N311        O322   1.262       .  A
N313        O319   1.262       .  A
N313        O320   1.262       .  A
C323        C324   1.397       .  A
C323        C328   1.399       .  A
C323        H333   1.099       .  S
C324        C325   1.403       .  A
C324        C329   1.473       .  S
C325        N330   1.429       .  S
C325        C326   1.397       .  A
C326        C327   1.409       .  A
C326        H331   1.085       .  S
C327        C328   1.413       .  A
C328        N332   1.439       .  S
C329        C334   1.408       .  A
C329        C338   1.396       .  A
N330        O345   1.261   1_554  A
N330        O346   1.262       .  A
N332        O343   1.263       .  A
N332        O344   1.262       .  A
C334        N339   1.434       .  S
C334        C335   1.403       .  A
C335        C336   1.408       .  A
C335        H340   1.083       .  S
C336        C337   1.416       .  A
C337        N341   1.433   1_554  S
C337        C338   1.397       .  A
C338        H342   1.080       .  S
N339        O349   1.262       .  A
N339        O350   1.262       .  A
N341        O347   1.262   1_556  A
N341        O348   1.262       .  A
C351        C352   1.405       .  A
C351        C356   1.412       .  A
C351        H361   1.083       .  S
C352        C353   1.409       .  A
C352        C357   1.496       .  S
C353        N358   1.437       .  S
C353        C354   1.401       .  A
C354        C355   1.415       .  A
C354        H359   1.079       .  S
C355        C356   1.418       .  A
C356        N360   1.427       .  S
C357        C362   1.415       .  A
C357        C366   1.399       .  A
N358        O373   1.262       .  A
N358        O374   1.263       .  A
N360        O371   1.262       .  A
N360        O372   1.260       .  A
C362        N367   1.433       .  S
C362        C363   1.414       .  A
C363        C364   1.409       .  A
C363        H368   1.083       .  S
C364        C365   1.421       .  A
C365        N369   1.433       .  S
C365        C366   1.403       .  A
C366        H370   1.084       .  S
N367        O377   1.262   1_554  A
N367        O378   1.262       .  A
N369        O375   1.260       .  A
N369        O376   1.262       .  A
C379        C380   1.400       .  A
C379        C384   1.407       .  A
C379        H389   1.083       .  S
C380        C381   1.411   1_545  A
C380        C385   1.485   1_545  S
C381        N386   1.436       .  S
C381        C382   1.408       .  A
C382        C383   1.406   1_565  A
C382        H387   1.078       .  S
C383        C384   1.418       .  A
C384        N388   1.438       .  S
C385        C390   1.409   1_565  A
C385        C394   1.401       .  A
N386        O401   1.262       .  A
N386        O402   1.262       .  A
N388        O399   1.263       .  A
N388        O400   1.263       .  A
C390        N395   1.429       .  S
C390        C391   1.401   1_545  A
C391        C392   1.405       .  A
C391        H396   1.084   1_565  S
C392        C393   1.418       .  A
C393        N397   1.434       .  S
C393        C394   1.406       .  A
C394        H398   1.081       .  S
N395        O405   1.262       .  A
N395        O406   1.262       .  A
N397        O403   1.262       .  A
N397        O404   1.262       .  A
C407        C408   1.400       .  A
C407        C412   1.402       .  A
C407        H417   1.084   1_545  S
C408        C409   1.412       .  A
C408        C413   1.492       .  S
C409        N414   1.428       .  S
C409        C410   1.405       .  A
C410        C411   1.407       .  A
C410        H415   1.084       .  S
C411        C412   1.416       .  A
C412        N416   1.427   1_545  S
C413        C418   1.417       .  A
C413        C422   1.402       .  A
N414        O429   1.260       .  A
N414        O430   1.262       .  A
N416        O427   1.262       .  A
N416        O428   1.261       .  A
C418        N423   1.437       .  S
C418        C419   1.411       .  A
C419        C420   1.407       .  A
C419        H424   1.084       .  S
C420        C421   1.413   1_545  A
C421        N425   1.431       .  S
C421        C422   1.404   1_565  A
C422        H426   1.083   1_545  S
N423        O433   1.263       .  A
N423        O434   1.262       .  A
N425        O431   1.262       .  A
N425        O432   1.260       .  A
C435        C436   1.408       .  A
C435        C440   1.406       .  A
C435        H445   1.084       .  S
C436        C437   1.413   1_455  A
C436        C441   1.489       .  S
C437        N442   1.431       .  S
C437        C438   1.399       .  A
C438        C439   1.399   1_655  A
C438        H443   1.083       .  S
C439        C440   1.409       .  A
C440        N444   1.435       .  S
C441        C446   1.415   1_455  A
C441        C450   1.405       .  A
N442        O457   1.261       .  A
N442        O458   1.261       .  A
N444        O455   1.262       .  A
N444        O456   1.262       .  A
C446        N451   1.438       .  S
C446        C447   1.406       .  A
C447        C448   1.407   1_655  A
C447        H452   1.083       .  S
C448        C449   1.408       .  A
C449        N453   1.433       .  S
C449        C450   1.400       .  A
C450        H454   1.080       .  S
N451        O461   1.262       .  A
N451        O462   1.263       .  A
N453        O459   1.262       .  A
N453        O460   1.262       .  A
C463        C464   1.406   1_655  A
C463        C468   1.414       .  A
C463        H473   1.084       .  S
C464        C465   1.408       .  A
C464        C469   1.488   1_455  S
C465        N470   1.439       .  S
C465        C466   1.400       .  A
C466        C467   1.416       .  A
C466        H471   1.083       .  S
C467        C468   1.417   1_455  A
C468        N472   1.433       .  S
C469        C474   1.415   1_655  A
C469        C478   1.404       .  A
N470        O485   1.262       .  A
N470        O486   1.263       .  A
N472        O483   1.260       .  A
N472        O484   1.262       .  A
C474        N479   1.433       .  S
C474        C475   1.401       .  A
C475        C476   1.400   1_455  A
C475        H480   1.084       .  S
C476        C477   1.412       .  A
C477        N481   1.433       .  S
C477        C478   1.407       .  A
C478        H482   1.084       .  S
N479        O489   1.262       .  A
N479        O490   1.261       .  A
N481        O487   1.262       .  A
N481        O488   1.262       .  A
C491        C492   1.402   1_455  A
C491        C496   1.405   1_455  A
C491        H501   1.083       .  S
C492        C493   1.411       .  A
C492        C497   1.487       .  S
C493        N498   1.438       .  S
C493        C494   1.398       .  A
C494        C495   1.411       .  A
C494        H499   1.078       .  S
C495        C496   1.418       .  A
C496        N500   1.428   1_655  S
C497        C502   1.412   1_655  A
C497        C506   1.402       .  A
N498        O513   1.262       .  A
N498        O514   1.263       .  A
N500        O511   1.261       .  A
N500        O512   1.262       .  A
C502        N507   1.429       .  S
C502        C503   1.402       .  A
C503        C504   1.403       .  A
C503        H508   1.084       .  S
C504        C505   1.412   1_455  A
C505        N509   1.435       .  S
C505        C506   1.400       .  A
C506        H510   1.084       .  S
N507        O517   1.262       .  A
N507        O518   1.262       .  A
N509        O515   1.260       .  A
N509        O516   1.262       .  A
C519        C520   1.403   1_655  A
C519        C524   1.400       .  A
C519        H529   1.084       .  S
C520        C521   1.409       .  A
C520        C525   1.482       .  S
C521        N526   1.430       .  S
C521        C522   1.408       .  A
C522        C523   1.406       .  A
C522        H527   1.084       .  S
C523        C524   1.408   1_455  A
C524        N528   1.428       .  S
C525        C530   1.410       .  A
C525        C534   1.395   1_455  A
N526        O541   1.262       .  A
N526        O542   1.262       .  A
N528        O539   1.261       .  A
N528        O540   1.262       .  A
C530        N535   1.425       .  S
C530        C531   1.408       .  A
C531        C532   1.403   1_455  A
C531        H536   1.084       .  S
C532        C533   1.419       .  A
C533        N537   1.431       .  S
C533        C534   1.397       .  A
C534        H538   1.084       .  S
N535        O545   1.257       .  A
N535        O546   1.261       .  A
N537        O543   1.261       .  A
N537        O544   1.262       .  A
C547        C548   1.403       .  A
C547        C552   1.405       .  A
C547        H557   1.084       .  S
C548        C549   1.416       .  A
C548        C553   1.494       .  S
C549        N554   1.435   1_655  S
C549        C550   1.410       .  A
C550        C551   1.407       .  A
C550        H555   1.083       .  S
C551        C552   1.415       .  A
C552        N556   1.433       .  S
C553        C558   1.412   1_655  A
C553        C562   1.407       .  A
N554        O569   1.262       .  A
N554        O570   1.263       .  A
N556        O567   1.262       .  A
N556        O568   1.263       .  A
C558        N563   1.428       .  S
C558        C559   1.405       .  A
C559        C560   1.403   1_455  A
C559        H564   1.082       .  S
C560        C561   1.410       .  A
C561        N565   1.432       .  S
C561        C562   1.405       .  A
C562        H566   1.084       .  S
N563        O573   1.260       .  A
N563        O574   1.262       .  A
N565        O571   1.262       .  A
N565        O572   1.262       .  A
C575        C576   1.403       .  A
C575        C580   1.406       .  A
C575        H585   1.084       .  S
C576        C577   1.410   1_655  A
C576        C581   1.491       .  S
C577        N582   1.432       .  S
C577        C578   1.407   1_455  A
C578        C579   1.408       .  A
C578        H583   1.083   1_655  S
C579        C580   1.418       .  A
C580        N584   1.438       .  S
C581        C586   1.411       .  A
C581        C590   1.405   1_655  A
N582        O597   1.262       .  A
N582        O598   1.262       .  A
N584        O595   1.263       .  A
N584        O596   1.263       .  A
C586        N591   1.432       .  S
C586        C587   1.400       .  A
C587        C588   1.401   1_655  A
C587        H592   1.083       .  S
C588        C589   1.414       .  A
C589        N593   1.435       .  S
C589        C590   1.411       .  A
C590        H594   1.083       .  S
N591        O601   1.262       .  A
N591        O602   1.262       .  A
N593        O599   1.262       .  A
N593        O600   1.263       .  A
C603        C604   1.402       .  A
C603        C608   1.402       .  A
C603        H613   1.079       .  S
C604        C605   1.407       .  A
C604        C609   1.478       .  S
C605        N610   1.436       .  S
C605        C606   1.400       .  A
C606        C607   1.409       .  A
C606        H611   1.083       .  S
C607        C608   1.411       .  A
C608        N612   1.439   1_554  S
C609        C614   1.412       .  A
C609        C618   1.395       .  A
N610        O625   1.262       .  A
N610        O626   1.263       .  A
N612        O623   1.263       .  A
N612        O624   1.263       .  A
C614        N619   1.435       .  S
C614        C615   1.402       .  A
C615        C616   1.407       .  A
C615        H620   1.086       .  S
C616        C617   1.415       .  A
C617        N621   1.431       .  S
C617        C618   1.395       .  A
C618        H622   1.100       .  S
N619        O629   1.262   1_554  A
N619        O630   1.262       .  A
N621        O627   1.261       .  A
N621        O628   1.262       .  A
C631        C632   1.394   1_556  A
C631        C636   1.401       .  A
C631        H641   1.084       .  S
C632        C633   1.408       .  A
C632        C637   1.490       .  S
C633        N638   1.427       .  S
C633        C634   1.410       .  A
C634        C635   1.409   1_554  A
C634        H639   1.084       .  S
C635        C636   1.431       .  A
C636        N640   1.430       .  S
C637        C642   1.416       .  A
C637        C646   1.408       .  A
N638        O653   1.262       .  A
N638        O654   1.259       .  A
N640        O651   1.262       .  A
N640        O652   1.262       .  A
C642        N647   1.437   1_554  S
C642        C643   1.402       .  A
C643        C644   1.401       .  A
C643        H648   1.084       .  S
C644        C645   1.410       .  A
C645        N649   1.429       .  S
C645        C646   1.410       .  A
C646        H650   1.084       .  S
N647        O657   1.262       .  A
N647        O658   1.262       .  A
N649        O655   1.262       .  A
N649        O656   1.262       .  A
C659        C660   1.405       .  A
C659        C664   1.406       .  A
C659        H669   1.081       .  S
C660        C661   1.420       .  A
C660        C665   1.506       .  S
C661        N666   1.434       .  S
C661        C662   1.408   1_545  A
C662        C663   1.404   1_565  A
C662        H667   1.084       .  S
C663        C664   1.420       .  A
C664        N668   1.444       .  S
C665        C670   1.420       .  A
C665        C674   1.406       .  A
N666        O681   1.262   1_545  A
N666        O682   1.263       .  A
N668        O679   1.262       .  A
N668        O680   1.262       .  A
C670        N675   1.434       .  S
C670        C671   1.404       .  A
C671        C672   1.406       .  A
C671        H676   1.082       .  S
C672        C673   1.416       .  A
C673        N677   1.427   1_545  S
C673        C674   1.404       .  A
C674        H678   1.083   1_545  S
N675        O685   1.263       .  A
N675        O686   1.262       .  A
N677        O683   1.262       .  A
N677        O684   1.262       .  A
C687        C688   1.407       .  A
C687        C692   1.411       .  A
C687        H697   1.083   1_545  S
C688        C689   1.409       .  A
C688        C693   1.492       .  S
C689        N694   1.438       .  S
C689        C690   1.402       .  A
C690        C691   1.418       .  A
C690        H695   1.081       .  S
C691        C692   1.414       .  A
C692        N696   1.429   1_545  S
C693        C698   1.413       .  A
C693        C702   1.407   1_545  A
N694        O709   1.262       .  A
N694        O710   1.263       .  A
N696        O707   1.261       .  A
N696        O708   1.260       .  A
C698        N703   1.428       .  S
C698        C699   1.398       .  A
C699        C700   1.400       .  A
C699        H704   1.083       .  S
C700        C701   1.409   1_545  A
C701        N705   1.428       .  S
C701        C702   1.407       .  A
C702        H706   1.084       .  S
N703        O713   1.259       .  A
N703        O714   1.262       .  A
N705        O711   1.261       .  A
N705        O712   1.262       .  A
C715        C716   1.402       .  A
C715        C720   1.404       .  A
C715        H725   1.084   1_565  S
C716        C717   1.417       .  A
C716        C721   1.489       .  S
C717        N722   1.441       .  S
C717        C718   1.405       .  A
C718        C719   1.406       .  A
C718        H723   1.083       .  S
C719        C720   1.417       .  A
C720        N724   1.430   1_565  S
C721        C726   1.415   1_565  A
C721        C730   1.407       .  A
N722        O737   1.260       .  A
N722        O738   1.263       .  A
N724        O735   1.262       .  A
N724        O736   1.262       .  A
C726        N731   1.438       .  S
C726        C727   1.406       .  A
C727        C728   1.403   1_545  A
C727        H732   1.084       .  S
C728        C729   1.408       .  A
C729        N733   1.430       .  S
C729        C730   1.405       .  A
C730        H734   1.084       .  S
N731        O741   1.262       .  A
N731        O742   1.262       .  A
N733        O739   1.262       .  A
N733        O740   1.262       .  A
C743        C744   1.404       .  A
C743        C748   1.410       .  A
C743        H753   1.083   1_565  S
C744        C745   1.408       .  A
C744        C749   1.487       .  S
C745        N750   1.434       .  S
C745        C746   1.399       .  A
C746        C747   1.413       .  A
C746        H751   1.082       .  S
C747        C748   1.412       .  A
C748        N752   1.429   1_565  S
C749        C754   1.414   1_565  A
C749        C758   1.401       .  A
N750        O765   1.262       .  A
N750        O766   1.262       .  A
N752        O763   1.261   1_545  A
N752        O764   1.262       .  A
C754        N759   1.433       .  S
C754        C755   1.410       .  A
C755        C756   1.404   1_545  A
C755        H760   1.083       .  S
C756        C757   1.414       .  A
C757        N761   1.430       .  S
C757        C758   1.402       .  A
C758        H762   1.084       .  S
N759        O769   1.262       .  A
N759        O770   1.262       .  A
N761        O767   1.261       .  A
N761        O768   1.262       .  A
C771        C772   1.403       .  A
C771        C776   1.406       .  A
C771        H781   1.084       .  S
C772        C773   1.411       .  A
C772        C777   1.492       .  S
C773        N778   1.429       .  S
C773        C774   1.403       .  A
C774        C775   1.404       .  A
C774        H779   1.083       .  S
C775        C776   1.411       .  A
C776        N780   1.424   1_554  S
C777        C782   1.409       .  A
C777        C786   1.401       .  A
N778        O793   1.262       .  A
N778        O794   1.262       .  A
N780        O791   1.260   1_556  A
N780        O792   1.262       .  A
C782        N787   1.429       .  S
C782        C783   1.404       .  A
C783        C784   1.407       .  A
C783        H788   1.083       .  S
C784        C785   1.423       .  A
C785        N789   1.436       .  S
C785        C786   1.407       .  A
C786        H790   1.083       .  S
N787        O797   1.262   1_554  A
N787        O798   1.262       .  A
N789        O795   1.261       .  A
N789        O796   1.263       .  A
C799        C800   1.406       .  A
C799        C804   1.395       .  A
C799        H809   1.077       .  S
C800        C801   1.417       .  A
C800        C805   1.496       .  S
C801        N806   1.435       .  S
C801        C802   1.407       .  A
C802        C803   1.406       .  A
C802        H807   1.083       .  S
C803        C804   1.402       .  A
C804        N808   1.430       .  S
C805        C810   1.420       .  A
C805        C814   1.408       .  A
N806        O821   1.262       .  A
N806        O822   1.263   1_554  A
N808        O819   1.262       .  A
N808        O820   1.261       .  A
C810        N815   1.433   1_554  S
C810        C811   1.405       .  A
C811        C812   1.400       .  A
C811        H816   1.084   1_554  S
C812        C813   1.405       .  A
C813        N817   1.435       .  S
C813        C814   1.396       .  A
C814        H818   1.084       .  S
N815        O825   1.260       .  A
N815        O826   1.262       .  A
N817        O823   1.263       .  A
N817        O824   1.262       .  A
C827        C828   1.405       .  A
C827        C832   1.403       .  A
C827        H837   1.081       .  S
C828        C829   1.418   1_554  A
C828        C833   1.499       .  S
C829        N834   1.434       .  S
C829        C830   1.409       .  A
C830        C831   1.403   1_556  A
C830        H835   1.084       .  S
C831        C832   1.408       .  A
C832        N836   1.427       .  S
C833        C838   1.414       .  A
C833        C842   1.403   1_554  A
N834        O849   1.262       .  A
N834        O850   1.262       .  A
N836        O847   1.261       .  A
N836        O848   1.262       .  A
C838        N843   1.433       .  S
C838        C839   1.409       .  A
C839        C840   1.408   1_554  A
C839        H844   1.082       .  S
C840        C841   1.419       .  A
C841        N845   1.438       .  S
C841        C842   1.406       .  A
C842        H846   1.082       .  S
N843        O853   1.262       .  A
N843        O854   1.262       .  A
N845        O851   1.263       .  A
N845        O852   1.262       .  A
C855        C856   1.404       .  A
C855        C860   1.395       .  A
C855        H865   1.076       .  S
C856        C857   1.416       .  A
C856        C861   1.491       .  S
C857        N862   1.437       .  S
C857        C858   1.406       .  A
C858        C859   1.405       .  A
C858        H863   1.082       .  S
C859        C860   1.402       .  A
C860        N864   1.432   1_554  S
C861        C866   1.418       .  A
C861        C870   1.407       .  A
N862        O877   1.263       .  A
N862        O878   1.263       .  A
N864        O875   1.262       .  A
N864        O876   1.262       .  A
C866        N871   1.431       .  S
C866        C867   1.402       .  A
C867        C868   1.399       .  A
C867        H872   1.084       .  S
C868        C869   1.402       .  A
C869        N873   1.430   1_554  S
C869        C870   1.394       .  A
C870        H874   1.084   1_554  S
N871        O881   1.261       .  A
N871        O882   1.262       .  A
N873        O879   1.262       .  A
N873        O880   1.262       .  A
