geometry optimzed in LAMMPS
_audit_creation_date              2020-11-30 
_audit_creation_method            'lammps2cif' 
_symmetry_space_group_name_H-M    'P1' 
_symmetry_Int_Tables_number       1 
_symmetry_cell_setting            triclinic 
loop_ 
_symmetry_equiv_pos_as_xyz 
  x,y,z 
_cell_length_a                    51.78190518 
_cell_length_b                    51.695138786484186 
_cell_length_c                    51.65247442300675 
_cell_angle_alpha                 90.00265442936072 
_cell_angle_beta                  89.72631943894629 
_cell_angle_gamma                 89.98506397950636 
loop_ 
_atom_site_label 
_atom_site_type_symbol 
_atom_site_fract_x 
_atom_site_fract_y 
_atom_site_fract_z 
_atom_site_charge 
O1          O  0.53484823  0.51936011  0.03354815    -0.73000
O2          O  0.48414419  0.46340086  0.01485754    -0.74000
O3          O  0.53831837  0.46538714  0.02144380    -0.62600
O4          O  0.47987453  0.51670342  0.02677487    -0.71000
O5          O  0.48545821  0.52674946  0.98529792    -0.70600
O6          O  0.54409538  0.47585515  0.98011393    -0.61800
O7          O  0.48922292  0.47317757  0.97324336    -0.74300
O8          O  0.53930600  0.52949301  0.99196421    -0.73100
Cu9        Cu  0.50917011  0.49091302  0.02564993     1.04600
Cu10       Cu  0.51470061  0.50160505  0.98120090     1.04300
C11         C  0.54485332  0.53332788  0.01569413     0.93200
C12         C  0.47868281  0.45963886  0.99108779     0.92300
C13         C  0.55026899  0.46246096  0.99994298     0.84500
C14         C  0.47350367  0.52972266  0.00676803     0.90700
O15         O  0.46538381  0.97686223  0.47319142    -0.73000
O16         O  0.51448702  0.98470016  0.53279526    -0.74000
O17         O  0.46176062  0.96938412  0.52819179    -0.62600
O18         O  0.51785757  0.99175469  0.47904714    -0.71000
O19         O  0.50535215  0.03266151  0.48336289    -0.70600
O20         O  0.44894143  0.01018672  0.53248863    -0.61800
O21         O  0.50137677  0.02529287  0.53817909    -0.74300
O22         O  0.45264861  0.01757664  0.47857445    -0.73100
Cu23       Cu  0.49022279  0.97921132  0.50313062     1.04600
Cu24       Cu  0.47667719  0.02287674  0.50830155     1.04300
C25         C  0.45129350  0.99604175  0.46659647     0.93200
C26         C  0.51575268  0.00631520  0.54467836     0.92300
C27         C  0.44660896  0.98625027  0.53811307     0.84500
C28         C  0.52053704  0.01568451  0.47365748     0.90700
O29         O  0.03981698  0.52710036  0.45917715    -0.73000
O30         O  0.03282465  0.47034784  0.51173713    -0.74000
O31         O  0.03442079  0.47237364  0.45692248    -0.62600
O32         O  0.03816791  0.52471851  0.51458596    -0.71000
O33         O  0.99539565  0.52818035  0.51414245    -0.70600
O34         O  0.99196392  0.47819304  0.45468233    -0.61800
O35         O  0.99007135  0.47344773  0.50947189    -0.74300
O36         O  0.99724710  0.53265244  0.45989182    -0.73100
Cu37       Cu  0.03783700  0.49850078  0.48558779     1.04600
Cu38       Cu  0.99217732  0.50323527  0.48449331     1.04300
C39         C  0.01960643  0.53903810  0.45163401     0.93200
C40         C  0.01034724  0.46292931  0.51871563     0.92300
C41         C  0.01260337  0.46716492  0.44674843     0.84500
C42         C  0.01727589  0.53446698  0.52354628     0.90700
N43         N  0.39907324  0.31621812  0.97608441    -0.27400
N44         N  0.42352320  0.32341022  0.97695380    -0.35200
C45         C  0.43857147  0.30221078  0.97805917     0.01000
C46         C  0.42287815  0.28041956  0.97795852     0.07000
C47         C  0.39790467  0.29023838  0.97664299    -0.06100
H48         H  0.45939598  0.30280757  0.97930701     0.07700
H49         H  0.38002550  0.27946132  0.97647338     0.08900
Cu50       Cu  0.43503858  0.36182063  0.97781393     0.44200
Cu51       Cu  0.36830379  0.34214770  0.97507894     0.42000
Cu52       Cu  0.38391661  0.41038903  0.97516087     0.43900
N53         N  0.44147587  0.40137974  0.97968813    -0.34800
N54         N  0.42304763  0.41906449  0.97820824    -0.29000
C55         C  0.43370426  0.44265323  0.98097091    -0.05100
C56         C  0.45997855  0.43956508  0.98433304     0.07100
C57         C  0.46424837  0.41322751  0.98365501     0.00900
H58         H  0.42297972  0.46061149  0.98157627     0.08600
H59         H  0.48243201  0.40334614  0.98654243     0.07600
N60         N  0.34624444  0.39633098  0.97481005    -0.36200
N61         N  0.34062584  0.37139064  0.97465853    -0.28400
C62         C  0.31479848  0.36857055  0.97443841    -0.03600
C63         C  0.30344360  0.39291048  0.97453675     0.05000
C64         C  0.32410143  0.41002712  0.97484052     0.03100
H65         H  0.30506661  0.35006379  0.97449928     0.08200
H66         H  0.32318837  0.43092833  0.97479379     0.07000
N67         N  0.32952335  0.61071971  0.00759969    -0.27400
N68         N  0.33664114  0.58657074  0.01218668    -0.35200
C69         C  0.31553654  0.57136039  0.01220095     0.01000
C70         C  0.29401500  0.58655744  0.00729747     0.07000
C71         C  0.30375465  0.61143129  0.00454630    -0.06100
H72         H  0.31603170  0.55061755  0.01485446     0.07700
H73         H  0.29302307  0.62888745  0.00044574     0.08900
Cu74       Cu  0.37482567  0.57450109  0.01604921     0.44200
Cu75       Cu  0.35478326  0.64193856  0.00421445     0.42000
Cu76       Cu  0.42074941  0.62308511  0.99679718     0.43900
N77         N  0.41424132  0.56728035  0.01227789    -0.34800
N78         N  0.43051932  0.58491803  0.00341261    -0.29000
C79         C  0.45398385  0.57422677  0.00045818    -0.05100
C80         C  0.45260642  0.54878328  0.00833246     0.07100
C81         C  0.42717136  0.54490877  0.01577649     0.00900
H82         H  0.47084827  0.58430385  0.99322233     0.08600
H83         H  0.41849121  0.52695010  0.02213535     0.07600
N84         N  0.40893419  0.66125028  0.99634971    -0.36200
N85         N  0.38468430  0.66850949  0.99946757    -0.28400
C86         C  0.38364735  0.69454060  0.99933234    -0.03600
C87         C  0.40856187  0.70418303  0.99599150     0.05000
C88         C  0.42398570  0.68230531  0.99419083     0.03100
H89         H  0.36601502  0.70549391  0.00174869     0.08200
H90         H  0.44472180  0.68151851  0.99185455     0.07000
N91         N  0.36875688  0.97466094  0.68071776    -0.27400
N92         N  0.39305815  0.97223519  0.67332022    -0.35200
C93         C  0.40840102  0.97544540  0.69407844     0.01000
C94         C  0.39288641  0.98032315  0.71556079     0.07000
C95         C  0.36785192  0.97950696  0.70622008    -0.06100
H96         H  0.42927779  0.97537423  0.69331288     0.07700
H97         H  0.35016056  0.98272907  0.71694839     0.08900
Cu98       Cu  0.40308177  0.96789596  0.63457043     0.44200
Cu99       Cu  0.33807146  0.97397921  0.65541582     0.42000
Cu100      Cu  0.34992674  0.97691215  0.58699200     0.43900
N101        N  0.40806481  0.97092966  0.59472942    -0.34800
N102        N  0.38942905  0.97557865  0.57783933    -0.29000
C103        C  0.40030139  0.98051496  0.55458531    -0.05100
C104        C  0.42682572  0.97828373  0.55689877     0.07100
C105        C  0.43104644  0.97228672  0.58254722     0.00900
H106        H  0.38974228  0.98626907  0.53750305     0.08600
H107        H  0.44954924  0.97093633  0.59210179     0.07600
N108        N  0.31268276  0.97770731  0.60308312    -0.36200
N109        N  0.30899549  0.97654054  0.62837607    -0.28400
C110        C  0.28370071  0.97844213  0.63364233    -0.03600
C111        C  0.27037147  0.98100476  0.61061096     0.05000
C112        C  0.28945349  0.98027631  0.59151430     0.03100
H113        H  0.27573852  0.97815612  0.65302900     0.08200
H114        H  0.28674435  0.98222731  0.57085537     0.07000
O115        O  0.46849590  0.03109428  0.99823172    -0.73000
O116        O  0.46603575  0.95234253  0.99895423    -0.74000
O117        O  0.46693687  0.99136238  0.95937708    -0.62600
O118        O  0.46779125  0.99210084  0.03764830    -0.71000
O119        O  0.42500970  0.99350758  0.03798550    -0.70600
O120        O  0.42417466  0.99285768  0.96065983    -0.61800
O121        O  0.42330667  0.95473523  0.99984402    -0.74300
O122        O  0.42569769  0.03150298  0.99922924    -0.73100
Cu123      Cu  0.46891697  0.99166395  0.99847626     1.04600
Cu124      Cu  0.42318931  0.99317536  0.99937540     1.04300
C125        C  0.44715686  0.04362805  0.99906192     0.93200
C126        C  0.44394042  0.94122775  0.99990183     0.92300
C127        C  0.44522258  0.99206516  0.94767570     0.84500
C128        C  0.44641302  0.99303026  0.05016052     0.90700
N129        N  0.37630907  0.99717966  0.32051172    -0.27400
N130        N  0.40021222  0.99193112  0.32771498    -0.35200
C131        C  0.41553909  0.99161344  0.30652052     0.01000
C132        C  0.40053063  0.99726393  0.28506485     0.07000
C133        C  0.37578975  0.00055308  0.29476237    -0.06100
H134        H  0.43620160  0.98854668  0.30684971     0.07700
H135        H  0.35858786  0.00527769  0.28393980     0.08900
Cu136      Cu  0.41075827  0.98805654  0.36642561     0.44200
Cu137      Cu  0.34512437  0.00054659  0.34552351     0.42000
Cu138      Cu  0.35831883  0.99967143  0.41308517     0.43900
N139        N  0.41569742  0.99014056  0.40641442    -0.34800
N140        N  0.39682126  0.99563753  0.42290447    -0.29000
C141        C  0.40667603  0.99808005  0.44678886    -0.05100
C142        C  0.43284905  0.99339242  0.44540122     0.07100
C143        C  0.43803557  0.98842914  0.41959326     0.00900
H144        H  0.39558793  0.00304456  0.46389326     0.08600
H145        H  0.45676820  0.98502358  0.41086886     0.07600
N146        N  0.32121529  0.00172054  0.39852769    -0.36200
N147        N  0.31639888  0.00226774  0.37347322    -0.28400
C148        C  0.29073914  0.00340605  0.36990697    -0.03600
C149        C  0.27866689  0.00350668  0.39395672     0.05000
C150        C  0.29873438  0.00238603  0.41165518     0.03100
H151        H  0.28166232  0.00371756  0.35110356     0.08200
H152        H  0.29725720  0.00217456  0.43254098     0.07000
N153        N  0.69373463  0.38012157  0.99597616    -0.27400
N154        N  0.68729965  0.40451729  0.99171967    -0.35200
C155        C  0.70908416  0.41879105  0.98987973     0.01000
C156        C  0.73024465  0.40264561  0.99342362     0.07000
C157        C  0.71961082  0.37829382  0.99717740    -0.06100
H158        H  0.70945192  0.43951346  0.98699147     0.07700
H159        H  0.72992167  0.36042166  0.00056591     0.08900
Cu160      Cu  0.64885122  0.41707914  0.99047846     0.44200
Cu161      Cu  0.66735092  0.34993868  0.00041545     0.42000
Cu162      Cu  0.60032122  0.36658068  0.00275682     0.43900
N163        N  0.60910471  0.42400280  0.99388902    -0.34800
N164        N  0.59194447  0.40580840  0.99946843    -0.29000
C165        C  0.56854044  0.41679149  0.00234802    -0.05100
C166        C  0.57091583  0.44302889  0.99797005     0.07100
C167        C  0.59682858  0.44699368  0.99257337     0.00900
H168        H  0.55103212  0.40638719  0.00715029     0.08600
H169        H  0.60620514  0.46532506  0.98882994     0.07600
N170        N  0.61326554  0.32853093  0.00437979    -0.36200
N171        N  0.63802893  0.32246187  0.00366097    -0.28400
C172        C  0.64041196  0.29657258  0.00484844    -0.03600
C173        C  0.61591407  0.28559623  0.00635246     0.05000
C174        C  0.59920726  0.30664603  0.00597362     0.03100
H175        H  0.65874892  0.28658861  0.00430729     0.08200
H176        H  0.57834523  0.30621848  0.00682522     0.07000
N177        N  0.00625865  0.38345410  0.66182592    -0.27400
N178        N  0.01087961  0.40748658  0.65457247    -0.35200
C179        C  0.01546877  0.42202181  0.67570639     0.01000
C180        C  0.01390369  0.40616359  0.69731430     0.07000
C181        C  0.00796950  0.38187539  0.68767285    -0.06100
H182        H  0.02013257  0.44241530  0.67527906     0.07700
H183        H  0.00496535  0.36427004  0.69858977     0.08900
Cu184      Cu  0.01107554  0.41794037  0.61599462     0.44200
Cu185      Cu  0.99810741  0.35386996  0.63618091     0.42000
Cu186      Cu  0.99490570  0.36705063  0.56778988     0.43900
N187        N  0.00848231  0.42362161  0.57650538    -0.34800
N188        N  0.00187549  0.40596816  0.55914421    -0.29000
C189        C  0.00119182  0.41728316  0.53563382    -0.05100
C190        C  0.00792752  0.44299006  0.53856890     0.07100
C191        C  0.01250611  0.44632191  0.56455125     0.00900
H192        H  0.99651737  0.40745758  0.51776542     0.08600
H193        H  0.01807677  0.46404364  0.57417696     0.07600
N194        N  0.99016138  0.33003419  0.58343310    -0.36200
N195        N  0.99110535  0.32573120  0.60862075    -0.28400
C196        C  0.98781093  0.30038621  0.61316383    -0.03600
C197        C  0.98467874  0.28773946  0.58973218     0.05000
C198        C  0.98634880  0.30726630  0.57122921     0.03100
H199        H  0.98842458  0.29180962  0.63224124     0.08200
H200        H  0.98503642  0.30512805  0.55044936     0.07000
O201        O  0.05566134  0.42607632  0.98254150    -0.73000
O202        O  0.97857449  0.42782060  0.98230286    -0.74000
O203        O  0.01742927  0.42839368  0.94366802    -0.62600
O204        O  0.01679850  0.42607118  0.02110130    -0.71000
O205        O  0.01746891  0.46892558  0.02246746    -0.70600
O206        O  0.01868249  0.47125293  0.94449644    -0.61800
O207        O  0.97866712  0.47065884  0.98318070    -0.74300
O208        O  0.05747101  0.46888350  0.98364915    -0.73100
Cu209      Cu  0.01710476  0.42570688  0.98234837     1.04600
Cu210      Cu  0.01812403  0.47150460  0.98350320     1.04300
C211        C  0.06891332  0.44688885  0.98309800     0.93200
C212        C  0.96623651  0.44920779  0.98278052     0.92300
C213        C  0.01814708  0.45006423  0.93176093     0.84500
C214        C  0.01683818  0.44709751  0.03410822     0.90700
N215        N  0.98738023  0.32839089  0.36321235    -0.27400
N216        N  0.99632478  0.33373666  0.38650919    -0.35200
C217        C  0.99738328  0.31173122  0.40041938     0.01000
C218        C  0.98850294  0.29157003  0.38512713     0.07000
C219        C  0.98241786  0.30296011  0.36164343    -0.06100
H220        H  0.00366973  0.31064772  0.42032862     0.07700
H221        H  0.97519054  0.29350422  0.34446525     0.08900
Cu222      Cu  0.00531433  0.37107891  0.39815067     0.44200
Cu223      Cu  0.98306479  0.35559175  0.33419387     0.42000
Cu224      Cu  0.99823591  0.42186125  0.34925578     0.43900
N225        N  0.00849766  0.41039073  0.40574412    -0.34800
N226        N  0.00500246  0.42883370  0.38831787    -0.29000
C227        C  0.00626737  0.45199993  0.40017495    -0.05100
C228        C  0.01113374  0.44783825  0.42611255     0.07100
C229        C  0.01241683  0.42134113  0.42901874     0.00900
H230        H  0.00364632  0.47044986  0.39065232     0.08600
H231        H  0.01508552  0.41075812  0.44688110     0.07600
N232        N  0.99159172  0.40870578  0.31181512    -0.36200
N233        N  0.98531335  0.38450187  0.30660916    -0.28400
C234        C  0.98327716  0.38157078  0.28087064    -0.03600
C235        C  0.98871155  0.40503944  0.26907181     0.05000
C236        C  0.99388780  0.42182636  0.28939633     0.03100
H237        H  0.97934647  0.36330001  0.27148766     0.08200
H238        H  0.99939593  0.44196068  0.28806166     0.07000
N239        N  0.01929994  0.62800655  0.31395508    -0.27400
N240        N  0.02770940  0.60478641  0.32050107    -0.35200
C241        C  0.03273673  0.59114929  0.29889604     0.01000
C242        C  0.02735567  0.60657017  0.27764520     0.07000
C243        C  0.01889575  0.62982777  0.28802278    -0.06100
H244        H  0.03965074  0.57140879  0.29880113     0.07700
H245        H  0.01229636  0.64670355  0.27759996     0.08900
Cu246      Cu  0.03066005  0.59208597  0.35837433     0.44200
Cu247      Cu  0.00802637  0.65608870  0.34030072     0.42000
Cu248      Cu  0.00554155  0.63609630  0.40689527     0.43900
N249        N  0.02626048  0.58246131  0.39703447    -0.34800
N250        N  0.01563661  0.59809891  0.41433008    -0.29000
C251        C  0.01237029  0.58517274  0.43666678    -0.05100
C252        C  0.02189392  0.56046201  0.43336946     0.07100
C253        C  0.03055518  0.55929706  0.40808401     0.00900
H254        H  0.00333145  0.59305551  0.45387355     0.08600
H255        H  0.03794042  0.54247192  0.39802154     0.07600
N256        N  0.99887255  0.67373007  0.39507238    -0.36200
N257        N  0.99949870  0.68100368  0.37057394    -0.28400
C258        C  0.99521536  0.70660070  0.36926608    -0.03600
C259        C  0.99182338  0.71602068  0.39422000     0.05000
C260        C  0.99431719  0.69451924  0.41006082     0.03100
H261        H  0.99542107  0.71757187  0.35144157     0.08200
H262        H  0.99317863  0.69393020  0.43096170     0.07000
N263        N  0.66129968  0.01316733  0.38991228    -0.27400
N264        N  0.65651777  0.01277656  0.41503809    -0.35200
C265        C  0.67892653  0.00839537  0.42762226     0.01000
C266        C  0.69857306  0.00564488  0.40932263     0.07000
C267        C  0.68648064  0.00885073  0.38571742    -0.06100
H268        H  0.68074682  0.00719824  0.44844234     0.07700
H269        H  0.69537964  0.00877141  0.36673243     0.08900
Cu270      Cu  0.61904166  0.01822133  0.42930191     0.44200
Cu271      Cu  0.63407304  0.02053065  0.36191848     0.42000
Cu272      Cu  0.56909988  0.03380341  0.37953983     0.43900
N273        N  0.57957282  0.02344360  0.43654826    -0.34800
N274        N  0.56210142  0.02998730  0.41904129    -0.29000
C275        C  0.53859975  0.03026438  0.43029706    -0.05100
C276        C  0.54131824  0.02343367  0.45596004     0.07100
C277        C  0.56742625  0.01896415  0.45920878     0.00900
H278        H  0.52065816  0.03314712  0.42003768     0.08600
H279        H  0.57675321  0.01173795  0.47645878     0.07600
N280        N  0.58139950  0.03254156  0.34119312    -0.36200
N281        N  0.60573241  0.02792122  0.33506675    -0.28400
C282        C  0.60831033  0.02748576  0.30922680    -0.03600
C283        C  0.58435454  0.03187100  0.29827878     0.05000
C284        C  0.56766481  0.03494225  0.31921923     0.03100
H285        H  0.62622849  0.02326711  0.29924558     0.08200
H286        H  0.54706802  0.03834534  0.31859615     0.07000
O287        O  0.98555351  0.96720663  0.39812670    -0.73000
O288        O  0.98671580  0.04425508  0.40128179    -0.74000
O289        O  0.02442185  0.00531145  0.39527825    -0.62600
O290        O  0.94761886  0.00613129  0.40389847    -0.71000
O291        O  0.95165038  0.00414865  0.44654364    -0.70600
O292        O  0.02930450  0.00350481  0.43785121    -0.61800
O293        O  0.99118064  0.04273685  0.44391420    -0.74300
O294        O  0.98998540  0.96469446  0.44071136    -0.73100
Cu295      Cu  0.98590196  0.00577310  0.39825163     1.04600
Cu296      Cu  0.99067347  0.00369320  0.44380992     1.04300
C297        C  0.98767288  0.95365123  0.41868273     0.93200
C298        C  0.98933210  0.05580007  0.42297447     0.92300
C299        C  0.03908822  0.00439950  0.41506311     0.84500
C300        C  0.93735343  0.00530737  0.42642360     0.90700
N301        N  0.63024537  0.67457300  0.02863709    -0.27400
N302        N  0.60564700  0.66915212  0.02460489    -0.35200
C303        C  0.59232888  0.69151936  0.02296858     0.01000
C304        C  0.60934471  0.71209264  0.02618951     0.07000
C305        C  0.63321863  0.70037934  0.02970423    -0.06100
H306        H  0.57171750  0.69261225  0.01990366     0.07700
H307        H  0.65161495  0.70978041  0.03263617     0.08900
Cu308      Cu  0.59158921  0.63129264  0.02223130     0.44200
Cu309      Cu  0.65919397  0.64693620  0.03209590     0.42000
Cu310      Cu  0.63970664  0.58051556  0.03296193     0.43900
N311        N  0.58315040  0.59172770  0.02361814    -0.34800
N312        N  0.60047693  0.57365447  0.02887282    -0.29000
C313        C  0.58901912  0.55030853  0.02831918    -0.05100
C314        C  0.56333294  0.55375319  0.02227930     0.07100
C315        C  0.56027105  0.58017176  0.01912088     0.00900
H316        H  0.59901154  0.53207363  0.03062112     0.08600
H317        H  0.54287203  0.59018472  0.01335162     0.07600
N318        N  0.67812739  0.59183610  0.03240102    -0.36200
N319        N  0.68525302  0.61635668  0.03236962    -0.28400
C320        C  0.71114944  0.61760657  0.03089078    -0.03600
C321        C  0.72095496  0.59261520  0.02977556     0.05000
C322        C  0.69930581  0.57679178  0.03077189     0.03100
H323        H  0.72189940  0.63550477  0.02981921     0.08200
H324        H  0.69884261  0.55589207  0.03005672     0.07000
N325        N  0.98659664  0.66337955  0.62201169    -0.27400
N326        N  0.99070789  0.66055384  0.59692066    -0.35200
C327        C  0.98918733  0.68388024  0.58541840     0.01000
C328        C  0.98391647  0.70246570  0.60418928     0.07000
C329        C  0.98236903  0.68853601  0.62716349    -0.06100
H330        H  0.99241024  0.68703007  0.56496686     0.07700
H331        H  0.97893976  0.69603998  0.64640612     0.08900
Cu332      Cu  0.99983405  0.62510354  0.58010302     0.44200
Cu333      Cu  0.98907639  0.63312955  0.64838333     0.42000
Cu334      Cu  0.01643361  0.57294199  0.62466231     0.43900
N335        N  0.01050671  0.58805129  0.56845089    -0.34800
N336        N  0.01768556  0.56944953  0.58449843    -0.29000
C337        C  0.02266306  0.54786671  0.57072057    -0.05100
C338        C  0.01821781  0.55314106  0.54488514     0.07100
C339        C  0.01032520  0.57865420  0.54415428     0.00900
H340        H  0.02754383  0.52930516  0.57905509     0.08600
H341        H  0.00414537  0.58938515  0.52729871     0.07600
N342        N  0.00795398  0.57992282  0.66350100    -0.36200
N343        N  0.99698216  0.60148340  0.67185565    -0.34400
C344        C  0.99335676  0.59981879  0.69759896    -0.03600
C345        C  0.00265283  0.57614350  0.70601628     0.05000
C346        C  0.01182664  0.56406904  0.68381530     0.03100
H347        H  0.98531093  0.61513180  0.70941750     0.08200
H348        H  0.02059256  0.54511664  0.68246605     0.07000
N349        N  0.59225224  0.02837739  0.68870160    -0.27400
N350        N  0.56795707  0.02933945  0.68102574    -0.35200
C351        C  0.55243498  0.03041476  0.70201204     0.01000
C352        C  0.56774972  0.03033682  0.72397021     0.07000
C353        C  0.59286684  0.02907670  0.71466397    -0.06100
H354        H  0.53156294  0.03062530  0.70127850     0.07700
H355        H  0.61035628  0.02744195  0.72591040     0.08900
Cu356      Cu  0.55723114  0.02682712  0.64243993     0.44200
Cu357      Cu  0.62369952  0.02313971  0.66420525     0.42000
Cu358      Cu  0.60908039  0.00698795  0.59852202     0.43900
N359        N  0.55192468  0.01829995  0.60356019    -0.34800
N360        N  0.57045188  0.00943848  0.58820079    -0.29000
C361        C  0.56027386  0.00355227  0.56503667    -0.05100
C362        C  0.53428372  0.00946156  0.56574404     0.07100
C363        C  0.52959638  0.01890987  0.59032995     0.00900
H364        H  0.57111536  0.99604747  0.54872401     0.08600
H365        H  0.51121335  0.02505025  0.59826111     0.07600
N366        N  0.64654978  0.00885861  0.61251349    -0.36200
N367        N  0.65189507  0.01485459  0.63674895    -0.28400
C368        C  0.67765390  0.01471576  0.63989765    -0.03600
C369        C  0.68925333  0.00843097  0.61642281     0.05000
C370        C  0.66878878  0.00488438  0.59951306     0.03100
H371        H  0.68713130  0.01926921  0.65793666     0.08200
H372        H  0.66985886  0.99972620  0.57924966     0.07000
O373        O  0.54443056  0.00125342  0.05055182    -0.73000
O374        O  0.53858108  0.99861153  0.97277138    -0.74000
O375        O  0.54129668  0.96042677  0.01312930    -0.62600
O376        O  0.54183593  0.03896683  0.01031104    -0.71000
O377        O  0.58445231  0.03784813  0.00628705    -0.70600
O378        O  0.58399179  0.96057618  0.01004890    -0.61800
O379        O  0.58131004  0.99727197  0.96976123    -0.74300
O380        O  0.58709654  0.00103215  0.04682646    -0.73100
Cu381      Cu  0.53997938  0.99977409  0.01181444     1.04600
Cu382      Cu  0.58561159  0.99914590  0.00813369     1.04300
C383        C  0.56679123  0.00183883  0.06095605     0.93200
C384        C  0.55915798  0.99767474  0.95900464     0.92300
C385        C  0.56276617  0.94813637  0.01203883     0.84500
C386        C  0.56343651  0.05075431  0.00770791     0.90700
O387        O  0.01727339  0.99431897  0.57176068    -0.73000
O388        O  0.93948173  0.99527460  0.57678058    -0.74000
O389        O  0.97886609  0.03406709  0.57301500    -0.62600
O390        O  0.97811640  0.95553283  0.57592130    -0.71000
O391        O  0.98060966  0.95760547  0.61867796    -0.70600
O392        O  0.98143589  0.03503538  0.61580230    -0.61800
O393        O  0.94229024  0.99666359  0.61955448    -0.74300
O394        O  0.01977583  0.99573665  0.61455099    -0.73100
Cu395      Cu  0.97832445  0.99476302  0.57283930     1.04600
Cu396      Cu  0.98110092  0.99634529  0.61856236     1.04300
C397        C  0.03084191  0.99473113  0.59238149     0.93200
C398        C  0.92857641  0.99594826  0.59904020     0.92300
C399        C  0.98039362  0.04693146  0.59414587     0.84500
C400        C  0.97930249  0.94420407  0.59794548     0.90700
O401        O  0.96807637  0.54311215  0.99872010    -0.73000
O402        O  0.04600616  0.53807162  0.99227050    -0.74000
O403        O  0.01048376  0.54742108  0.03344151    -0.62600
O404        O  0.00348664  0.53342907  0.95712543    -0.71000
O405        O  0.00687848  0.57558384  0.94955537    -0.70600
O406        O  0.01181658  0.58954607  0.02542219    -0.61800
O407        O  0.04745006  0.58031832  0.98485320    -0.74300
O408        O  0.97075670  0.58500217  0.98997418    -0.73100
Cu409      Cu  0.00692233  0.53896188  0.99565723     1.04600
Cu410      Cu  0.00925478  0.58400354  0.98719136     1.04300
C411        C  0.95717027  0.56508955  0.99541363     0.93200
C412        C  0.05895132  0.55865092  0.98753554     0.92300
C413        C  0.01211766  0.57074951  0.04147484     0.84500
C414        C  0.00456768  0.55242257  0.94130892     0.90700
C415        C  0.71737221  0.00643513  0.61069640    -0.03300
C416        C  0.72662247  0.00615867  0.58503389    -0.05900
C417        C  0.75318498  0.00490048  0.57984136    -0.21000
C418        C  0.77109952  0.00354480  0.60011734     0.24800
C419        C  0.76181650  0.00394391  0.62578613    -0.18500
C420        C  0.73533907  0.00525270  0.63096281    -0.08500
C421        C  0.79927232  0.00298403  0.59396445    -0.18800
C422        C  0.81699688  0.99335292  0.61041507    -0.23600
C423        C  0.84546234  0.99437632  0.60629027     0.26800
C424        C  0.86136987  0.99154632  0.62802545    -0.20300
C425        C  0.88821729  0.99232390  0.62561988    -0.10000
C426        C  0.89997212  0.99562328  0.60128467    -0.10500
C427        C  0.88413217  0.99819705  0.57935979    -0.03500
C428        C  0.85712672  0.99764341  0.58180747    -0.18600
H429        H  0.71342971  0.00732512  0.56890052     0.10500
H430        H  0.75976680  0.00496679  0.55990218     0.10600
H431        H  0.77486576  0.00391228  0.64205998     0.10300
H432        H  0.72904719  0.00540204  0.65095753     0.11400
H433        H  0.80535555  0.01098341  0.57551242     0.11500
H434        H  0.81052636  0.98488820  0.62852848     0.13400
H435        H  0.85296718  0.98889138  0.64709102     0.09900
H436        H  0.89978020  0.99011378  0.64289403     0.12000
H437        H  0.89260264  0.00062723  0.56030742     0.08600
H438        H  0.84562254  0.99932871  0.56447765     0.11300
C439        C  0.55962184  0.02913066  0.75150168    -0.03300
C440        C  0.53507278  0.01988094  0.75878452    -0.05900
C441        C  0.52889447  0.01615760  0.78500109    -0.21000
C442        C  0.54720489  0.02145230  0.80424050     0.24800
C443        C  0.57103443  0.03232499  0.79695577    -0.18500
C444        C  0.57719077  0.03599057  0.77093123    -0.08500
C445        C  0.54155551  0.01533598  0.83179395    -0.18800
C446        C  0.56040961  0.00706085  0.84768385    -0.23600
C447        C  0.55768655  0.00238228  0.87594982     0.26800
C448        C  0.57863990  0.99102192  0.88882515    -0.20300
C449        C  0.57869876  0.98877500  0.91572132    -0.10000
C450        C  0.55768266  0.99770423  0.93044654    -0.10500
C451        C  0.53623580  0.00823650  0.91765182    -0.03500
C452        C  0.53622631  0.01066840  0.89062208    -0.18600
H453        H  0.52102948  0.01458240  0.74426940     0.10500
H454        H  0.51021339  0.00821902  0.79019406     0.10600
H455        H  0.58511240  0.03781211  0.81137684     0.10300
H456        H  0.59592317  0.04394765  0.76605720     0.11400
H457        H  0.52174963  0.01680748  0.83854651     0.11500
H458        H  0.57945704  0.00361821  0.83944930     0.13400
H459        H  0.59543588  0.98448388  0.87807460     0.09900
H460        H  0.59546137  0.98047602  0.92504741     0.12000
H461        H  0.51995279  0.01561102  0.92862883     0.08600
H462        H  0.51986377  0.01991150  0.88158766     0.11300
C463        C  0.00344937  0.54796966  0.91320943    -0.03300
C464        C  0.98524014  0.53102832  0.90247883    -0.05900
C465        C  0.98257401  0.52930224  0.87554049    -0.21000
C466        C  0.99870257  0.54374385  0.85905720     0.24800
C467        C  0.01764900  0.55982531  0.86993670    -0.18500
C468        C  0.01978992  0.56210913  0.89675412    -0.08500
C469        C  0.99386506  0.54408551  0.83079784    -0.18800
C470        C  0.01305682  0.54653623  0.81332354    -0.23600
C471        C  0.00834162  0.55181022  0.78553532     0.26800
C472        C  0.02563693  0.54224574  0.76687237    -0.20300
C473        C  0.02319893  0.54931794  0.74082961    -0.10000
C474        C  0.00384541  0.56672115  0.73310835    -0.10500
C475        C  0.98632156  0.57601355  0.75178062    -0.03500
C476        C  0.98842552  0.56850652  0.77769970    -0.18600
H477        H  0.97239912  0.52002635  0.91489778     0.10500
H478        H  0.96772680  0.51694223  0.86754788     0.10600
H479        H  0.02998578  0.57162311  0.85775771     0.10300
H480        H  0.03398792  0.57526051  0.90469299     0.11400
H481        H  0.97397825  0.54296457  0.82428154     0.11500
H482        H  0.03299448  0.54514439  0.81965093     0.13400
H483        H  0.04128808  0.52957175  0.77253781     0.09900
H484        H  0.03709211  0.54196382  0.72694091     0.12000
H485        H  0.97112831  0.58933755  0.74641524     0.08600
H486        H  0.97515452  0.57666694  0.79175501     0.11300
C487        C  0.98178980  0.73105826  0.60074203    -0.03300
C488        C  0.98190847  0.74223281  0.57590371    -0.05900
C489        C  0.98041225  0.76911955  0.57278792    -0.21000
C490        C  0.97888648  0.78564525  0.59434077     0.24800
C491        C  0.97828055  0.77442715  0.61921040    -0.18500
C492        C  0.97980705  0.74756596  0.62231855    -0.08500
C493        C  0.97746930  0.81423187  0.58988788    -0.18800
C494        C  0.98158486  0.83213844  0.60846745    -0.23600
C495        C  0.98023663  0.86073902  0.60449290     0.26800
C496        C  0.97846841  0.87658078  0.62650480    -0.20300
C497        C  0.97795748  0.90350540  0.62424823    -0.10000
C498        C  0.97928379  0.91547823  0.59983926    -0.10500
C499        C  0.98102090  0.89973072  0.57768552    -0.03500
C500        C  0.98157162  0.87265055  0.57994993    -0.18600
H501        H  0.98313176  0.73029747  0.55874917     0.10500
H502        H  0.98063528  0.77705939  0.55337834     0.10600
H503        H  0.97628770  0.78607094  0.63646062     0.10300
H504        H  0.97949889  0.73987163  0.64177683     0.11400
H505        H  0.97307830  0.82053836  0.57038365     0.11500
H506        H  0.98609450  0.82583554  0.62792397     0.13400
H507        H  0.97750427  0.86807379  0.64565658     0.09900
H508        H  0.97658842  0.91495861  0.64175585     0.12000
H509        H  0.98230866  0.90833720  0.55861089     0.08600
H510        H  0.98359167  0.86132519  0.56247396     0.11300
C511        C  0.74848850  0.58483010  0.02687603    -0.03300
C512        C  0.75535269  0.55960065  0.01922498    -0.05900
C513        C  0.78135051  0.55278787  0.01571444    -0.21000
C514        C  0.80103728  0.57103475  0.01960681     0.24800
C515        C  0.79417250  0.59600274  0.02807918    -0.18500
C516        C  0.76827432  0.60281516  0.03150383    -0.08500
C517        C  0.82851169  0.56345054  0.01521915    -0.18800
C518        C  0.84685464  0.58084027  0.00872136    -0.23600
C519        C  0.87481824  0.57511526  0.00466441     0.26800
C520        C  0.89061334  0.59538194  0.99587471    -0.20300
C521        C  0.91713428  0.59190511  0.99263752    -0.10000
C522        C  0.92874901  0.56797122  0.99809149    -0.10500
C523        C  0.91303940  0.54746128  0.00667018    -0.03500
C524        C  0.88632746  0.55096465  0.00998062    -0.18600
H525        H  0.74068776  0.54518826  0.01551360     0.10500
H526        H  0.78607457  0.53332478  0.00951915     0.10600
H527        H  0.80872362  0.61032698  0.03247628     0.10300
H528        H  0.76385849  0.62220700  0.03803120     0.11400
H529        H  0.83324873  0.54307046  0.01648134     0.11500
H530        H  0.84105465  0.60078149  0.00568286     0.13400
H531        H  0.88243012  0.61420482  0.99167189     0.09900
H532        H  0.92857768  0.60815611  0.98600043     0.12000
H533        H  0.92143432  0.52883697  0.01122603     0.08600
H534        H  0.87506828  0.53484249  0.01706860     0.11300
C535        C  0.60359215  0.74040370  0.02601286    -0.03300
C536        C  0.62267681  0.75835478  0.03312419    -0.05900
C537        C  0.61765955  0.78490197  0.03267790    -0.21000
C538        C  0.59345477  0.79447753  0.02512576     0.24800
C539        C  0.57417658  0.77659116  0.01811870    -0.18500
C540        C  0.57920827  0.74988653  0.01862912    -0.08500
C541        C  0.59000974  0.82317332  0.02418676    -0.18800
C542        C  0.56797427  0.83582632  0.01819861    -0.23600
C543        C  0.56665806  0.86465653  0.01628961     0.26800
C544        C  0.54292860  0.87746704  0.01991938    -0.20300
C545        C  0.54138040  0.90457138  0.01840768    -0.10000
C546        C  0.56356117  0.91939271  0.01306722    -0.10500
C547        C  0.58707769  0.90646528  0.00874402    -0.03500
C548        C  0.58859259  0.87954598  0.01013996    -0.18600
H549        H  0.64162834  0.75205289  0.03913741     0.10500
H550        H  0.63296018  0.79807680  0.03815489     0.10600
H551        H  0.55530691  0.78292454  0.01194189     0.10300
H552        H  0.56402340  0.73674486  0.01290236     0.11400
H553        H  0.60693332  0.83454270  0.02897786     0.11500
H554        H  0.55025269  0.82514544  0.01512746     0.13400
H555        H  0.52561172  0.86650318  0.02424395     0.09900
H556        H  0.52292159  0.91390595  0.02165147     0.12000
H557        H  0.60446974  0.91716972  0.00410706     0.08600
H558        H  0.60699691  0.87054834  0.00595392     0.11300
C559        C  0.72667439  0.00139552  0.41316219    -0.03300
C560        C  0.74161344  0.99115921  0.39283807    -0.05900
C561        C  0.76837777  0.98930872  0.39491619    -0.21000
C562        C  0.78112948  0.99768259  0.41730489     0.24800
C563        C  0.76613641  0.00700322  0.43820922    -0.18500
C564        C  0.73912901  0.00872429  0.43614743    -0.08500
C565        C  0.80994003  0.99676426  0.41713647    -0.18800
C566        C  0.82549479  0.00647799  0.43561554    -0.23600
C567        C  0.85417384  0.00620605  0.43300208     0.26800
C568        C  0.86956075  0.00483758  0.45527718    -0.20300
C569        C  0.89657953  0.00443688  0.45328216    -0.10000
C570        C  0.90876790  0.00574694  0.42892308    -0.10500
C571        C  0.89332326  0.00767690  0.40668737    -0.03500
C572        C  0.86640935  0.00800569  0.40868058    -0.18600
H573        H  0.73267784  0.98476599  0.37505577     0.10500
H574        H  0.77923993  0.98176746  0.37859790     0.10600
H575        H  0.77498179  0.01331829  0.45601525     0.10300
H576        H  0.72812610  0.01659551  0.45218652     0.11400
H577        H  0.81887918  0.98779947  0.40032445     0.11500
H578        H  0.81740369  0.01442489  0.45328320     0.13400
H579        H  0.86063669  0.00375256  0.47425374     0.09900
H580        H  0.90790051  0.00308070  0.47080258     0.12000
H581        H  0.90202747  0.00906389  0.38763455     0.08600
H582        H  0.85529065  0.01011611  0.39112233     0.11300
C583        C  0.56938287  0.00382470  0.08944633    -0.03300
C584        C  0.59380569  0.00186017  0.10099626    -0.05900
C585        C  0.59657470  0.00474340  0.12771288    -0.21000
C586        C  0.57508905  0.00982161  0.14360852     0.24800
C587        C  0.55049235  0.01127585  0.13211507    -0.18500
C588        C  0.54773009  0.00833813  0.10531895    -0.08500
C589        C  0.57959298  0.01343091  0.17185019    -0.18800
C590        C  0.56191355  0.02232804  0.18893242    -0.23600
C591        C  0.56779014  0.02607603  0.21683293     0.26800
C592        C  0.54781846  0.02389163  0.23518519    -0.20300
C593        C  0.55294957  0.02639756  0.26166826    -0.10000
C594        C  0.57818650  0.03129049  0.27027382    -0.10500
C595        C  0.59792423  0.03462561  0.25179956    -0.03500
C596        C  0.59280165  0.03215425  0.22540647    -0.18600
H597        H  0.61088913  0.99825708  0.08936791     0.10500
H598        H  0.61572383  0.00332261  0.13595845     0.10600
H599        H  0.53326459  0.01461147  0.14349136     0.10300
H600        H  0.52865879  0.00995491  0.09699898     0.11400
H601        H  0.59874794  0.00862468  0.17881940     0.11500
H602        H  0.54237006  0.02644398  0.18280458     0.13400
H603        H  0.52830878  0.01959555  0.22904783     0.09900
H604        H  0.53729331  0.02377638  0.27537023     0.12000
H605        H  0.61743599  0.03914765  0.25768510     0.08600
H606        H  0.60846945  0.03520688  0.21181796     0.11300
C607        C  0.98758297  0.92508180  0.41647017    -0.03300
C608        C  0.98770222  0.91368772  0.39180296    -0.05900
C609        C  0.98791782  0.88692660  0.38903118    -0.21000
C610        C  0.98779973  0.87069765  0.41075657     0.24800
C611        C  0.98760024  0.88192148  0.43562083    -0.18500
C612        C  0.98755350  0.90894612  0.43842135    -0.08500
C613        C  0.98870722  0.84240502  0.40594902    -0.18800
C614        C  0.98254077  0.82388113  0.42322358    -0.23600
C615        C  0.98321715  0.79603717  0.41601426     0.26800
C616        C  0.98943583  0.77741878  0.43472185    -0.20300
C617        C  0.99183207  0.75131281  0.42784007    -0.10000
C618        C  0.98783793  0.74333419  0.40210849    -0.10500
C619        C  0.98042809  0.76186281  0.38371557    -0.03500
C620        C  0.97796099  0.78783293  0.39059661    -0.18600
H621        H  0.98782288  0.92546254  0.37446133     0.10500
H622        H  0.98814161  0.87884755  0.36967315     0.10600
H623        H  0.98796827  0.87007233  0.45286325     0.10300
H624        H  0.98755666  0.91718559  0.45769454     0.11400
H625        H  0.99454244  0.83659485  0.38658737     0.11500
H626        H  0.97754898  0.82891575  0.44300507     0.13400
H627        H  0.99318719  0.78318523  0.45451251     0.09900
H628        H  0.99744313  0.73756928  0.44256904     0.12000
H629        H  0.97646144  0.75638159  0.36391731     0.08600
H630        H  0.97184988  0.80140790  0.37590497     0.11300
C631        C  0.02911255  0.59952810  0.24989844    -0.03300
C632        C  0.03043603  0.57348313  0.24214972    -0.05900
C633        C  0.03090734  0.56697125  0.21587476    -0.21000
C634        C  0.02990344  0.58630378  0.19685914     0.24800
C635        C  0.02959280  0.61238886  0.20462078    -0.18500
C636        C  0.02905539  0.61888809  0.23082931    -0.08500
C637        C  0.02942431  0.57868856  0.16916783    -0.18800
C638        C  0.01842755  0.59353046  0.15085084    -0.23600
C639        C  0.01757495  0.58679755  0.12295595     0.26800
C640        C  0.01318540  0.60678064  0.10514601    -0.20300
C641        C  0.01168579  0.60157948  0.07870505    -0.10000
C642        C  0.01421963  0.57615000  0.06947808    -0.10500
C643        C  0.01845562  0.55603772  0.08726473    -0.03500
C644        C  0.02012284  0.56127242  0.11376953    -0.18600
H645        H  0.03053776  0.55806202  0.25630603     0.10500
H646        H  0.03148175  0.54675162  0.21038236     0.10600
H647        H  0.03002981  0.62790254  0.19057873     0.10300
H648        H  0.02874480  0.63914613  0.23608247     0.11400
H649        H  0.03783362  0.56015199  0.16407979     0.11500
H650        H  0.00970524  0.61182386  0.15634748     0.13400
H651        H  0.01096743  0.62656591  0.11171862     0.09900
H652        H  0.00826346  0.61748691  0.06551584     0.12000
H653        H  0.02039669  0.53622766  0.08071949     0.08600
H654        H  0.02281803  0.54520107  0.12686748     0.11300
C655        C  0.99035908  0.08442006  0.42352807    -0.03300
C656        C  0.99410770  0.09801842  0.44680355    -0.05900
C657        C  0.99515958  0.12511547  0.44685987    -0.21000
C658        C  0.99213851  0.13905845  0.42375213     0.24800
C659        C  0.98897191  0.12537366  0.40044896    -0.18500
C660        C  0.98797860  0.09844071  0.40037208    -0.08500
C661        C  0.99316165  0.16778280  0.42402239    -0.18800
C662        C  0.97968935  0.18199184  0.40687710    -0.23600
C663        C  0.98154137  0.21050759  0.40345629     0.26800
C664        C  0.96711606  0.22165080  0.38341158    -0.20300
C665        C  0.96922302  0.24791699  0.37773511    -0.10000
C666        C  0.98573780  0.26388656  0.39208868    -0.10500
C667        C  0.99970849  0.25303213  0.41268709    -0.03500
C668        C  0.99774183  0.22656455  0.41829568    -0.18600
H669        H  0.99626145  0.08774546  0.46493509     0.10500
H670        H  0.99801910  0.13521641  0.46499505     0.10600
H671        H  0.98768276  0.13538610  0.38210121     0.10300
H672        H  0.98545845  0.08860458  0.38204565     0.11400
H673        H  0.00502349  0.17697094  0.43858747     0.11500
H674        H  0.96670734  0.17195552  0.39382558     0.13400
H675        H  0.95440525  0.20986964  0.37169768     0.09900
H676        H  0.95782598  0.25565106  0.36203165     0.12000
H677        H  0.01264433  0.26483249  0.42408690     0.08600
H678        H  0.00922345  0.21894163  0.43393868     0.11300
C679        C  0.99058292  0.41014632  0.24083569    -0.03300
C680        C  0.97940348  0.39293082  0.22307967    -0.05900
C681        C  0.98216977  0.39685308  0.19647144    -0.21000
C682        C  0.99608994  0.41809250  0.18683932     0.24800
C683        C  0.00713683  0.43552626  0.20458051    -0.18500
C684        C  0.00427750  0.43163263  0.23128225    -0.08500
C685        C  0.99942540  0.42039057  0.15828871    -0.18800
C686        C  0.00788216  0.44175538  0.14588971    -0.23600
C687        C  0.01106814  0.44287375  0.11725416     0.26800
C688        C  0.00964210  0.46688217  0.10460210    -0.20300
C689        C  0.01188800  0.46842885  0.07760985    -0.10000
C690        C  0.01576416  0.44595498  0.06275342    -0.10500
C691        C  0.01803251  0.42206650  0.07550751    -0.03500
C692        C  0.01588881  0.42053895  0.10241247    -0.18600
H693        H  0.96850034  0.37631882  0.22966555     0.10500
H694        H  0.97348864  0.38306866  0.18332388     0.10600
H695        H  0.01854681  0.45180821  0.19811751     0.10300
H696        H  0.01341680  0.44510635  0.24439031     0.11400
H697        H  0.99378649  0.40368970  0.14691132     0.11500
H698        H  0.01143375  0.45938879  0.15665887     0.13400
H699        H  0.00631628  0.48443515  0.11558716     0.09900
H700        H  0.01017569  0.48714574  0.06836111     0.12000
H701        H  0.02144954  0.40444294  0.06468089     0.08600
H702        H  0.01827055  0.40182333  0.11144514     0.11300
C703        C  0.01820965  0.41297944  0.72479313    -0.03300
C704        C  0.02562344  0.39365542  0.74229654    -0.05900
C705        C  0.02869876  0.39928999  0.76844640    -0.21000
C706        C  0.02425748  0.42432289  0.77796200     0.24800
C707        C  0.01739639  0.44399265  0.76038004    -0.18500
C708        C  0.01453650  0.43833923  0.73396465    -0.08500
C709        C  0.02628900  0.42812914  0.80641319    -0.18800
C710        C  0.01913629  0.44947810  0.81959564    -0.23600
C711        C  0.01876193  0.44975974  0.84838192     0.26800
C712        C  0.02363922  0.47279591  0.86190192    -0.20300
C713        C  0.02349514  0.47308073  0.88905973    -0.10000
C714        C  0.01820254  0.45034177  0.90309996    -0.10500
C715        C  0.01275482  0.42751119  0.88948280    -0.03500
C716        C  0.01283338  0.42724974  0.86251754    -0.18600
H717        H  0.02910829  0.37404451  0.73583346     0.10500
H718        H  0.03415059  0.38376842  0.78142091     0.10600
H719        H  0.01404344  0.46361422  0.76676793     0.10300
H720        H  0.00884519  0.45364316  0.72086560     0.11400
H721        H  0.03334492  0.41166397  0.81737068     0.11500
H722        H  0.01333765  0.46691761  0.80953098     0.13400
H723        H  0.02790734  0.49046388  0.85144871     0.09900
H724        H  0.02772555  0.49099565  0.89903975     0.12000
H725        H  0.00815300  0.40978173  0.89967583     0.08600
H726        H  0.00782739  0.40940101  0.85281246     0.11300
C727        C  0.98107376  0.07571639  0.59389640    -0.03300
C728        C  0.98201516  0.08945325  0.61735747    -0.05900
C729        C  0.98277562  0.11645833  0.61755534    -0.21000
C730        C  0.98250095  0.13064510  0.59437567     0.24800
C731        C  0.98177011  0.11696006  0.57076629    -0.18500
C732        C  0.98103391  0.08978733  0.57057432    -0.08500
C733        C  0.98329828  0.15947790  0.59623536    -0.18800
C734        C  0.97878264  0.17610810  0.57658964    -0.23600
C735        C  0.97916315  0.20479951  0.58003822     0.26800
C736        C  0.98476958  0.22080223  0.55874126    -0.20300
C737        C  0.98607208  0.24777241  0.56160988    -0.10000
C738        C  0.98163239  0.25934636  0.58587160    -0.10500
C739        C  0.97491815  0.24335850  0.60688508    -0.03500
C740        C  0.97359708  0.21651083  0.60401948    -0.18600
H741        H  0.98215103  0.07933751  0.63571413     0.10500
H742        H  0.98343882  0.12633645  0.63604285     0.10600
H743        H  0.98203296  0.12694650  0.55239812     0.10300
H744        H  0.98053454  0.07980182  0.55215403     0.11400
H745        H  0.98772764  0.16733526  0.61517916     0.11500
H746        H  0.97518844  0.16882091  0.55727237     0.13400
H747        H  0.98871317  0.21236839  0.53993608     0.09900
H748        H  0.99114733  0.25943824  0.54495518     0.12000
H749        H  0.97058328  0.25151873  0.62569184     0.08600
H750        H  0.96793553  0.20509676  0.62064728     0.11300
C751        C  0.93745135  0.44853552  0.98306363    -0.03300
C752        C  0.92248561  0.47125724  0.98271868    -0.05900
C753        C  0.89534383  0.46991732  0.98328396    -0.21000
C754        C  0.88259120  0.44588704  0.98445286     0.24800
C755        C  0.89766734  0.42322971  0.98427595    -0.18500
C756        C  0.92460863  0.42456143  0.98371865    -0.08500
C757        C  0.85367946  0.44477786  0.98486807    -0.18800
C758        C  0.84055965  0.42465417  0.99528368    -0.23600
C759        C  0.81187768  0.42100585  0.99513817     0.26800
C760        C  0.80175785  0.39980677  0.00885605    -0.20300
C761        C  0.77538940  0.39412307  0.00837686    -0.10000
C762        C  0.75816227  0.40958875  0.99428298    -0.10500
C763        C  0.76801114  0.43120293  0.98091807    -0.03500
C764        C  0.79462183  0.43678834  0.98116277    -0.18600
H765        H  0.93173225  0.49002588  0.98198167     0.10500
H766        H  0.88428497  0.48770553  0.98303711     0.10600
H767        H  0.88879840  0.40429408  0.98405983     0.10300
H768        H  0.93539897  0.40661397  0.98371648     0.11400
H769        H  0.84326953  0.46110791  0.97689219     0.11500
H770        H  0.85153413  0.40960118  0.00489726     0.13400
H771        H  0.81440267  0.38728083  0.01985036     0.09900
H772        H  0.76850291  0.37756623  0.01921673     0.12000
H773        H  0.75524400  0.44341451  0.96974485     0.08600
H774        H  0.80147373  0.45312656  0.97004126     0.11300
C775        C  0.56454714  0.07945599  0.00638781    -0.03300
C776        C  0.54300420  0.09492309  0.01252713    -0.05900
C777        C  0.54490875  0.12203701  0.01213172    -0.21000
C778        C  0.56840026  0.13420137  0.00580236     0.24800
C779        C  0.58958410  0.11862716  0.99871540    -0.18500
C780        C  0.58771781  0.09169574  0.99919428    -0.08500
C781        C  0.57036378  0.16304210  0.00617298    -0.18800
C782        C  0.59295259  0.17529727  0.01069735    -0.23600
C783        C  0.59738636  0.20384641  0.00991366     0.26800
C784        C  0.62289072  0.21265613  0.01255311    -0.20300
C785        C  0.62877045  0.23899504  0.01147506    -0.10000
C786        C  0.60927039  0.25751649  0.00779349    -0.10500
C787        C  0.58358770  0.24881942  0.00541520    -0.03500
C788        C  0.57767545  0.22229926  0.00641745    -0.18600
H789        H  0.52484568  0.08609343  0.01806404     0.10500
H790        H  0.52815016  0.13352381  0.01726136     0.10600
H791        H  0.60766236  0.12711149  0.99247938     0.10300
H792        H  0.60454965  0.08042735  0.99383907     0.11400
H793        H  0.55282796  0.17402745  0.00305600     0.11500
H794        H  0.60975596  0.16360268  0.01517503     0.13400
H795        H  0.63853458  0.19902251  0.01531202     0.09900
H796        H  0.64872559  0.24469947  0.01364000     0.12000
H797        H  0.56799328  0.26242537  0.00253498     0.08600
H798        H  0.55772800  0.21654768  0.00443294     0.11300
C799        C  0.25049590  0.00444006  0.39943233    -0.03300
C800        C  0.24083551  0.99905079  0.42433862    -0.05900
C801        C  0.21428890  0.99991618  0.42937967    -0.21000
C802        C  0.19674286  0.00602113  0.40967450     0.24800
C803        C  0.20642785  0.01181828  0.38483056    -0.18500
C804        C  0.23294956  0.01089240  0.37977792    -0.08500
C805        C  0.16867329  0.00680575  0.41600732    -0.18800
C806        C  0.15000315  0.00418191  0.39807693    -0.23600
C807        C  0.12169691  0.00455953  0.40358925     0.26800
C808        C  0.10478258  0.00200074  0.38257562    -0.20300
C809        C  0.07806874  0.00199769  0.38634187    -0.10000
C810        C  0.06748640  0.00443562  0.41131703    -0.10500
C811        C  0.08427806  0.00706321  0.43242996    -0.03500
C812        C  0.11108281  0.00720310  0.42865966    -0.18600
H813        H  0.25368734  0.99393425  0.43996900     0.10500
H814        H  0.20741012  0.99557335  0.44873812     0.10600
H815        H  0.19376857  0.01760960  0.36929320     0.10300
H816        H  0.23963815  0.01565438  0.36049178     0.11400
H817        H  0.16363043  0.00877140  0.43626559     0.11500
H818        H  0.15558403  0.00100364  0.37806811     0.13400
H819        H  0.11225959  0.99996246  0.36305455     0.09900
H820        H  0.06570025  0.99993321  0.36962221     0.12000
H821        H  0.07670341  0.00912587  0.45190021     0.08600
H822        H  0.12309266  0.00930582  0.44553958     0.11300
C823        C  0.40881323  0.00069262  0.25779113    -0.03300
C824        C  0.39506550  0.01758307  0.24167602    -0.05900
C825        C  0.40155613  0.02003883  0.21557134    -0.21000
C826        C  0.42179092  0.00551618  0.20471384     0.24800
C827        C  0.43610861  0.98901619  0.22100564    -0.18500
C828        C  0.42975563  0.98681176  0.24737373    -0.08500
C829        C  0.42563766  0.00717135  0.17614623    -0.18800
C830        C  0.44434822  0.99510669  0.16248876    -0.23600
C831        C  0.44480556  0.99521907  0.13365002     0.26800
C832        C  0.46836667  0.99238521  0.12035095    -0.20300
C833        C  0.46905270  0.99175815  0.09321000    -0.10000
C834        C  0.44612102  0.99368926  0.07886523    -0.10500
C835        C  0.42255150  0.99616725  0.09223165    -0.03500
C836        C  0.42186773  0.99681128  0.11922705    -0.18600
H837        H  0.37912873  0.02890793  0.24921490     0.10500
H838        H  0.39023857  0.03298383  0.20364565     0.10600
H839        H  0.45172954  0.97728900  0.21355804     0.10300
H840        H  0.44063815  0.97360325  0.25939553     0.11400
H841        H  0.41170339  0.01880549  0.16566632     0.11500
H842        H  0.45977717  0.98498705  0.17232743     0.13400
H843        H  0.48627434  0.99075531  0.13098210     0.09900
H844        H  0.48747824  0.98959356  0.08346251     0.12000
H845        H  0.40448538  0.99745167  0.08183388     0.08600
H846        H  0.40321401  0.99794638  0.12867990     0.11300
C847        C  0.40095736  0.98664535  0.74237003    -0.03300
C848        C  0.38356975  0.99880477  0.75942217    -0.05900
C849        C  0.39059269  0.00411739  0.78490125    -0.21000
C850        C  0.41506547  0.99724123  0.79418432     0.24800
C851        C  0.43286367  0.98575686  0.77695804    -0.18500
C852        C  0.42584400  0.98055630  0.75129028    -0.08500
C853        C  0.42040747  0.00174405  0.82210363    -0.18800
C854        C  0.43955119  0.99037906  0.83557324    -0.23600
C855        C  0.44102511  0.99194946  0.86428995     0.26800
C856        C  0.46495967  0.98915584  0.87665823    -0.20300
C857        C  0.46650106  0.98927709  0.90375591    -0.10000
C858        C  0.44408799  0.99204433  0.91898686    -0.10500
C859        C  0.42015390  0.99453278  0.90654103    -0.03500
C860        C  0.41860429  0.99436792  0.87959667    -0.18600
H861        H  0.36443379  0.00430676  0.75318116     0.10500
H862        H  0.37654705  0.01318149  0.79760558     0.10600
H863        H  0.45214171  0.98069054  0.78306068     0.10300
H864        H  0.43976210  0.97132808  0.73860903     0.11400
H865        H  0.40671863  0.01391275  0.83243138     0.11500
H866        H  0.45408538  0.97886802  0.82574346     0.13400
H867        H  0.48246477  0.98679139  0.86532926     0.09900
H868        H  0.48513748  0.98683943  0.91277594     0.12000
H869        H  0.40244800  0.99637005  0.91763473     0.08600
H870        H  0.39966463  0.99540726  0.87091711     0.11300
C871        C  0.24201624  0.98490409  0.60792361    -0.03300
C872        C  0.22750124  0.99355533  0.62928552    -0.05900
C873        C  0.20083332  0.99672389  0.62758324    -0.21000
C874        C  0.18766036  0.99129976  0.60454906     0.24800
C875        C  0.20212773  0.98290876  0.58288445    -0.18500
C876        C  0.22907125  0.97985426  0.58457689    -0.08500
C877        C  0.15900111  0.99466326  0.60474321    -0.18800
C878        C  0.14281475  0.98807626  0.58543693    -0.23600
C879        C  0.11413485  0.99057338  0.58771837     0.26800
C880        C  0.09921591  0.99219189  0.56512911    -0.20300
C881        C  0.07221977  0.99383471  0.56656188    -0.10000
C882        C  0.05948118  0.99373398  0.59067997    -0.10500
C883        C  0.07438232  0.99200980  0.61327551    -0.03500
C884        C  0.10130333  0.99028360  0.61184823    -0.18600
H885        H  0.23669244  0.99813759  0.64747208     0.10500
H886        H  0.19039480  0.00333501  0.64457198     0.10600
H887        H  0.19294661  0.97866281  0.56464216     0.10300
H888        H  0.23967959  0.97315637  0.56775564     0.11400
H889        H  0.15083475  0.00301792  0.62221770     0.11500
H890        H  0.15048288  0.98083574  0.56727905     0.13400
H891        H  0.10848937  0.99220248  0.54628653     0.09900
H892        H  0.06132963  0.99504678  0.54875673     0.12000
H893        H  0.06521397  0.99156147  0.63215728     0.08600
H894        H  0.11180218  0.98803888  0.62974649     0.11300
C895        C  0.44150816  0.91267707  0.00162631    -0.03300
C896        C  0.41757696  0.90200666  0.00880927    -0.05900
C897        C  0.41431938  0.87536214  0.01061027    -0.21000
C898        C  0.43469299  0.85845268  0.00491269     0.24800
C899        C  0.45889245  0.86889737  0.99788506    -0.18500
C900        C  0.46229506  0.89587449  0.99641409    -0.08500
C901        C  0.42927656  0.83029551  0.00695006    -0.18800
C902        C  0.44209626  0.81158519  0.99409868    -0.23600
C903        C  0.43323564  0.78415617  0.99454160     0.26800
C904        C  0.45124727  0.76413735  0.99143576    -0.20300
C905        C  0.44331176  0.73822946  0.99189639    -0.10000
C906        C  0.41705655  0.73172575  0.99516627    -0.10500
C907        C  0.39899087  0.75187463  0.99762098    -0.03500
C908        C  0.40692871  0.77770818  0.99719662    -0.18600
H909        H  0.40120199  0.91429743  0.01324468     0.10500
H910        H  0.39554722  0.86789951  0.01619583     0.10600
H911        H  0.47520516  0.85642212  0.99388114     0.10300
H912        H  0.48101710  0.90354755  0.99101257     0.11400
H913        H  0.41268213  0.82491844  0.01869509     0.11500
H914        H  0.45918032  0.81630709  0.98280592     0.13400
H915        H  0.47156299  0.76854679  0.98897107     0.09900
H916        H  0.45788380  0.72340730  0.98971998     0.12000
H917        H  0.37860989  0.74784525  0.99979347     0.08600
H918        H  0.39226558  0.79256501  0.99850760     0.11300
C919        C  0.26668554  0.57807527  0.00478794    -0.03300
C920        C  0.25869100  0.55354075  0.01352212    -0.05900
C921        C  0.23278955  0.54593912  0.01159614    -0.21000
C922        C  0.21441180  0.56247904  0.00052953     0.24800
C923        C  0.22241269  0.58701440  0.99181473    -0.18500
C924        C  0.24819296  0.59464747  0.99385082    -0.08500
C925        C  0.18679667  0.55451249  0.99977390    -0.18800
C926        C  0.17038136  0.56357285  0.98176767    -0.23600
C927        C  0.14189440  0.56011834  0.98258380     0.26800
C928        C  0.12680063  0.57840875  0.96951870    -0.20300
C929        C  0.09994740  0.57750940  0.97089474    -0.10000
C930        C  0.08740305  0.55796980  0.98501247    -0.10500
C931        C  0.10234033  0.53889072  0.99726038    -0.03500
C932        C  0.12942811  0.53999591  0.99618223    -0.18600
H933        H  0.27230315  0.54032833  0.02226733     0.10500
H934        H  0.22708026  0.52709015  0.01877678     0.10600
H935        H  0.20871727  0.60073933  0.98403756     0.10300
H936        H  0.25351213  0.61363992  0.98685856     0.11400
H937        H  0.17989270  0.54165739  0.01489125     0.11500
H938        H  0.17791382  0.57589312  0.96647564     0.13400
H939        H  0.13584334  0.59397930  0.95875023     0.09900
H940        H  0.08895561  0.59231959  0.96100780     0.12000
H941        H  0.09311001  0.52356363  0.00819738     0.08600
H942        H  0.14040377  0.52515660  0.00596524     0.11300
C943        C  0.44656115  0.07228395  0.00028523    -0.03300
C944        C  0.42355359  0.08462051  0.00782225    -0.05900
C945        C  0.42184024  0.11147239  0.00842139    -0.21000
C946        C  0.44291069  0.12691734  0.00120601     0.24800
C947        C  0.46633106  0.11473738  0.99425279    -0.18500
C948        C  0.46813240  0.08758273  0.99389990    -0.08500
C949        C  0.43872881  0.15539694  0.00077408    -0.18800
C950        C  0.45358054  0.17266553  0.98807182    -0.23600
C951        C  0.44561292  0.20021558  0.98539860     0.26800
C952        C  0.46438187  0.21971370  0.98390456    -0.20300
C953        C  0.45711591  0.24572747  0.98140506    -0.10000
C954        C  0.43086075  0.25277630  0.97998443    -0.10500
C955        C  0.41217678  0.23305615  0.98074555    -0.03500
C956        C  0.41943053  0.20717077  0.98334945    -0.18600
H957        H  0.40664850  0.07348686  0.01322006     0.10500
H958        H  0.40363702  0.12022584  0.01403251     0.10600
H959        H  0.48320475  0.12594371  0.98907356     0.10300
H960        H  0.48615625  0.07858348  0.98816730     0.11400
H961        H  0.42133594  0.16236232  0.01033926     0.11500
H962        H  0.47160197  0.16671759  0.97909960     0.13400
H963        H  0.48469453  0.21483668  0.98503244     0.09900
H964        H  0.47215234  0.26021602  0.98066542     0.12000
H965        H  0.39182139  0.23743753  0.97935214     0.08600
H966        H  0.40442977  0.19259875  0.98332688     0.11300
C967        C  0.27536345  0.39910435  0.97416937    -0.03300
C968        C  0.25739022  0.38046464  0.96610794    -0.05900
C969        C  0.23097666  0.38604810  0.96585998    -0.21000
C970        C  0.22165401  0.41035442  0.97375530     0.24800
C971        C  0.23964819  0.42910845  0.98185373    -0.18500
C972        C  0.26618544  0.42354512  0.98192283    -0.08500
C973        C  0.19307019  0.41450307  0.97397586    -0.18800
C974        C  0.18090996  0.43702466  0.97946935    -0.23600
C975        C  0.15213882  0.43943318  0.98070354     0.26800
C976        C  0.14046840  0.46383035  0.97757964    -0.20300
C977        C  0.11347191  0.46655400  0.97861006    -0.10000
C978        C  0.09758661  0.44491170  0.98294691    -0.10500
C979        C  0.10934521  0.42068598  0.98671455    -0.03500
C980        C  0.13616554  0.41798699  0.98579153    -0.18600
H981        H  0.26367817  0.36153085  0.95975043     0.10500
H982        H  0.21771079  0.37114482  0.95955448     0.10600
H983        H  0.23352245  0.44795917  0.98848306     0.10300
H984        H  0.27945790  0.43828808  0.98850120     0.11400
H985        H  0.18144428  0.39779783  0.96899180     0.11500
H986        H  0.19204813  0.45446478  0.98264993     0.13400
H987        H  0.15225329  0.48078364  0.97401553     0.09900
H988        H  0.10503851  0.48547052  0.97562158     0.12000
H989        H  0.09777712  0.40364378  0.99052650     0.08600
H990        H  0.14418667  0.39905027  0.98951927     0.11300
loop_ 
_geom_bond_atom_site_label_1 
_geom_bond_atom_site_label_2 
_geom_bond_distance 
_geom_bond_site_symmetry_2 
_ccdc_geom_bond_type 
O1           Cu9   2.026       .  S
O1           C11   1.279       .  A
O2           Cu9   2.005       .  S
O2           C12   1.276   1_554  A
O3           Cu9   2.016       .  S
O3           C13   1.278   1_554  A
O4           Cu9   2.020       .  S
O4           C14   1.278       .  A
O5          Cu10   2.006       .  S
O5           C14   1.277   1_556  A
O6          Cu10   2.022       .  S
O6           C13   1.278       .  A
O7          Cu10   2.019       .  S
O7           C12   1.278       .  A
O8          Cu10   2.005       .  S
O8           C11   1.276   1_556  A
Cu9         Cu10   2.378   1_554  S
C11         C314   1.466       .  S
C12          C56   1.463       .  S
C13         C166   1.470       .  S
C14          C80   1.465       .  S
O15         Cu23   2.020       .  S
O15          C25   1.278       .  A
O16         Cu23   2.006       .  S
O16          C26   1.277   1_565  A
O17         Cu23   2.022       .  S
O17          C27   1.278       .  A
O18         Cu23   2.000       .  S
O18          C28   1.275   1_565  A
O19         Cu24   2.025       .  S
O19          C28   1.279       .  A
O20         Cu24   2.009       .  S
O20          C27   1.277   1_545  A
O21         Cu24   2.013       .  S
O21          C26   1.277       .  A
O22         Cu24   2.000       .  S
O22          C25   1.276   1_545  A
Cu23        Cu24   2.378   1_565  S
C25         C142   1.463       .  S
C26         C362   1.463       .  S
C27         C104   1.467       .  S
C28         C276   1.465       .  S
O29         Cu37   2.014       .  S
O29          C39   1.277       .  A
O30         Cu37   2.002       .  S
O30          C40   1.276       .  A
O31         Cu37   2.013       .  S
O31          C41   1.277       .  A
O32         Cu37   2.020       .  S
O32          C42   1.278       .  A
O33         Cu38   2.010       .  S
O33          C42   1.277   1_655  A
O34         Cu38   2.012       .  S
O34          C41   1.277   1_655  A
O35         Cu38   2.012       .  S
O35          C40   1.277   1_655  A
O36         Cu38   1.998       .  S
O36          C39   1.276   1_655  A
Cu37        Cu38   2.378   1_455  S
C39         C252   1.459       .  S
C40         C190   1.459       .  S
C41         C228   1.463       .  S
C42         C338   1.466       .  S
N43          N44   1.321       .  A
N43          C47   1.345       .  A
N43         Cu51   2.083       .  S
N44          C45   1.346       .  A
N44         Cu50   2.074       .  S
C45          C46   1.389       .  A
C45          H48   1.081       .  S
C46         C954   1.491       .  S
C46          C47   1.391       .  A
C47          H49   1.081       .  S
Cu50         N53   2.074       .  S
Cu51         N61   2.083       .  S
Cu52         N54   2.082       .  S
Cu52         N60   2.082       .  S
N53          N54   1.324       .  A
N53          C57   1.345       .  A
N54          C55   1.346       .  A
C55          C56   1.382       .  A
C55          H58   1.082       .  S
C56          C57   1.380       .  A
C57          H59   1.082       .  S
N60          N61   1.322       .  A
N60          C64   1.347       .  A
N61          C62   1.345       .  A
C62          C63   1.389       .  A
C62          H65   1.081       .  S
C63         C967   1.489       .  S
C63          C64   1.389       .  A
C64          H66   1.082       .  S
N67          N68   1.323       .  A
N67          C71   1.345       .  A
N67         Cu75   2.084       .  S
N68          C69   1.346       .  A
N68         Cu74   2.084       .  S
C69          C70   1.388       .  A
C69          H72   1.081       .  S
C70         C919   1.488       .  S
C70          C71   1.388       .  A
C71          H73   1.081       .  S
Cu74         N77   2.083       .  S
Cu75         N85   2.084   1_554  S
Cu76         N78   2.066   1_556  S
Cu76         N84   2.066       .  S
N77          N78   1.322       .  A
N77          C81   1.349       .  A
N78          C79   1.343       .  A
C79          C80   1.379       .  A
C79          H82   1.082   1_554  S
C80          C81   1.385       .  A
C81          H83   1.082       .  S
N84          N85   1.320       .  A
N84          C88   1.343       .  A
N85          C86   1.347       .  A
C86          C87   1.393       .  A
C86          H89   1.081   1_556  S
C87         C906   1.491       .  S
C87          C88   1.387       .  A
C88          H90   1.081       .  S
N91          N92   1.319       .  A
N91          C95   1.341       .  A
N91         Cu99   2.062       .  S
N92          C93   1.348       .  A
N92         Cu98   2.077       .  S
C93          C94   1.390       .  A
C93          H96   1.082       .  S
C94         C847   1.485       .  S
C94          C95   1.386       .  A
C95          H97   1.081       .  S
Cu98        N101   2.079       .  S
Cu99        N109   2.063       .  S
Cu100       N102   2.098       .  S
Cu100       N108   2.097       .  S
N101        N102   1.326       .  A
N101        C105   1.345       .  A
N102        C103   1.348       .  A
C103        C104   1.384       .  A
C103        H106   1.082       .  S
C104        C105   1.379       .  A
C105        H107   1.082       .  S
N108        N109   1.321       .  A
N108        C112   1.352       .  A
N109        C110   1.340       .  A
C110        C111   1.385       .  A
C110        H113   1.081       .  S
C111        C871   1.489       .  S
C111        C112   1.393       .  A
C112        H114   1.082       .  S
O115       Cu123   2.039   1_545  S
O115        C125   1.281       .  A
O116       Cu123   2.038       .  S
O116        C126   1.281       .  A
O117       Cu123   2.023       .  S
O117        C127   1.280       .  A
O118       Cu123   2.024   1_554  S
O118        C128   1.280       .  A
O119       Cu124   1.997   1_554  S
O119        C128   1.277       .  A
O120       Cu124   2.000       .  S
O120        C127   1.278       .  A
O121       Cu124   1.987       .  S
O121        C126   1.276       .  A
O122       Cu124   1.986   1_545  S
O122        C125   1.276       .  A
Cu123      Cu124   2.369       .  S
C125        C943   1.483   1_556  S
C126        C895   1.484   1_556  S
C127        C858   1.483       .  S
C128        C834   1.483       .  S
N129        N130   1.322       .  A
N129        C133   1.342   1_565  A
N129       Cu137   2.070   1_565  S
N130        C131   1.349       .  A
N130       Cu136   2.085       .  S
C131        C132   1.388       .  A
C131        H134   1.082       .  S
C132        C823   1.481   1_565  S
C132        C133   1.384   1_565  A
C133        H135   1.082       .  S
Cu136       N139   2.085       .  S
Cu137       N147   2.070       .  S
Cu138       N140   2.070       .  S
Cu138       N146   2.069   1_565  S
N139        N140   1.324       .  A
N139        C143   1.348       .  A
N140        C141   1.343       .  A
C141        C142   1.378       .  A
C141        H144   1.082   1_565  S
C142        C143   1.383       .  A
C143        H145   1.082       .  S
N146        N147   1.319       .  A
N146        C150   1.345       .  A
N147        C148   1.344       .  A
C148        C149   1.388       .  A
C148        H151   1.081       .  S
C149        C799   1.485       .  S
C149        C150   1.388       .  A
C150        H152   1.081       .  S
N153        N154   1.323       .  A
N153        C157   1.345       .  A
N153       Cu161   2.086   1_556  S
N154        C155   1.351       .  A
N154       Cu160   2.095       .  S
C155        C156   1.390       .  A
C155        H158   1.082       .  S
C156        C762   1.490       .  S
C156        C157   1.387       .  A
C157        H159   1.082   1_556  S
Cu160       N163   2.096       .  S
Cu161       N171   2.086       .  S
Cu162       N164   2.081   1_554  S
Cu162       N170   2.080       .  S
N163        N164   1.325       .  A
N163        C167   1.350       .  A
N164        C165   1.346   1_556  A
C165        C166   1.381   1_554  A
C165        H168   1.082       .  S
C166        C167   1.384       .  A
C167        H169   1.082       .  S
N170        N171   1.320       .  A
N170        C174   1.348       .  A
N171        C172   1.345       .  A
C172        C173   1.392       .  A
C172        H175   1.081       .  S
C173        C786   1.494       .  S
C173        C174   1.390       .  A
C174        H176   1.081       .  S
N177        N178   1.319       .  A
N177        C181   1.341       .  A
N177       Cu185   2.068   1_455  S
N178        C179   1.347       .  A
N178       Cu184   2.065       .  S
C179        C180   1.387       .  A
C179        H182   1.082       .  S
C180        C703   1.480       .  S
C180        C181   1.386       .  A
C181        H183   1.082       .  S
Cu184       N187   2.066       .  S
Cu185       N195   2.069       .  S
Cu186       N188   2.092   1_655  S
Cu186       N194   2.091       .  S
N187        N188   1.326       .  A
N187        C191   1.342       .  A
N188        C189   1.349       .  A
C189        C190   1.383       .  A
C189        H192   1.082   1_455  S
C190        C191   1.375       .  A
C191        H193   1.082       .  S
N194        N195   1.321       .  A
N194        C198   1.350       .  A
N195        C196   1.342       .  A
C196        C197   1.386       .  A
C196        H199   1.081       .  S
C197        C738   1.490       .  S
C197        C198   1.393       .  A
C198        H200   1.081       .  S
O201       Cu209   1.997       .  S
O201        C211   1.277       .  A
O202       Cu209   1.998   1_655  S
O202        C212   1.277       .  A
O203       Cu209   2.003       .  S
O203        C213   1.278       .  A
O204       Cu209   2.002   1_554  S
O204        C214   1.278       .  A
O205       Cu210   2.017   1_554  S
O205        C214   1.279       .  A
O206       Cu210   2.015       .  S
O206        C213   1.278       .  A
O207       Cu210   2.044   1_655  S
O207        C212   1.283       .  A
O208       Cu210   2.042       .  S
O208        C211   1.282       .  A
Cu209      Cu210   2.369       .  S
C211        C978   1.488       .  S
C212        C751   1.491       .  S
C213        C714   1.480       .  S
C214        C690   1.482       .  S
N215        N216   1.321       .  A
N215        C219   1.342       .  A
N215       Cu223   2.068       .  S
N216        C217   1.347       .  A
N216       Cu222   2.076   1_655  S
C217        C218   1.388       .  A
C217        H220   1.082   1_655  S
C218        C666   1.482       .  S
C218        C219   1.386       .  A
C219        H221   1.081       .  S
Cu222       N225   2.076       .  S
Cu223       N233   2.068       .  S
Cu224       N226   2.081   1_655  S
Cu224       N232   2.080       .  S
N225        N226   1.324       .  A
N225        C229   1.345       .  A
N226        C227   1.347       .  A
C227        C228   1.381       .  A
C227        H230   1.082       .  S
C228        C229   1.380       .  A
C229        H231   1.082       .  S
N232        N233   1.321       .  A
N232        C236   1.347       .  A
N233        C234   1.343       .  A
C234        C235   1.386       .  A
C234        H237   1.081       .  S
C235        C679   1.485       .  S
C235        C236   1.389       .  A
C236        H238   1.081       .  S
N239        N240   1.321       .  A
N239        C243   1.343       .  A
N239       Cu247   2.072       .  S
N240        C241   1.344       .  A
N240       Cu246   2.070       .  S
C241        C242   1.386       .  A
C241        H244   1.081       .  S
C242        C631   1.481       .  S
C242        C243   1.386       .  A
C243        H245   1.081       .  S
Cu246       N249   2.070       .  S
Cu247       N257   2.072   1_455  S
Cu248       N250   2.069       .  S
Cu248       N256   2.069   1_455  S
N249        N250   1.323       .  A
N249        C253   1.345       .  A
N250        C251   1.343       .  A
C251        C252   1.379       .  A
C251        H254   1.082       .  S
C252        C253   1.380       .  A
C253        H255   1.082       .  S
N256        N257   1.320       .  A
N256        C260   1.345       .  A
N257        C258   1.343       .  A
C258        C259   1.388       .  A
C258        H261   1.081       .  S
C259        C618   1.484       .  S
C259        C260   1.387       .  A
C260        H262   1.081       .  S
N263        N264   1.320       .  A
N263        C267   1.339       .  A
N263       Cu271   2.060       .  S
N264        C265   1.352       .  A
N264       Cu270   2.091       .  S
C265        C266   1.393       .  A
C265        H268   1.082       .  S
C266        C559   1.486       .  S
C266        C267   1.383       .  A
C267        H269   1.082       .  S
Cu270       N273   2.093       .  S
Cu271       N281   2.060       .  S
Cu272       N274   2.080       .  S
Cu272       N280   2.079       .  S
N273        N274   1.326       .  A
N273        C277   1.346       .  A
N274        C275   1.346       .  A
C275        C276   1.380       .  A
C275        H278   1.082       .  S
C276        C277   1.382       .  A
C277        H279   1.082       .  S
N280        N281   1.319       .  A
N280        C284   1.348       .  A
N281        C282   1.341       .  A
C282        C283   1.384       .  A
C282        H285   1.081       .  S
C283        C594   1.483       .  S
C283        C284   1.390       .  A
C284        H286   1.082       .  S
O287       Cu295   1.994   1_565  S
O287        C297   1.277       .  A
O288       Cu295   1.996       .  S
O288        C298   1.277       .  A
O289       Cu295   2.000   1_455  S
O289        C299   1.277       .  A
O290       Cu295   2.002       .  S
O290        C300   1.278       .  A
O291       Cu296   2.025       .  S
O291        C300   1.280       .  A
O292       Cu296   2.022   1_455  S
O292        C299   1.280       .  A
O293       Cu296   2.019       .  S
O293        C298   1.279       .  A
O294       Cu296   2.023   1_565  S
O294        C297   1.279       .  A
Cu295      Cu296   2.370       .  S
C297        C607   1.481       .  S
C298        C655   1.481       .  S
C299        C810   1.482       .  S
C300        C570   1.485       .  S
N301        N302   1.322       .  A
N301        C305   1.344       .  A
N301       Cu309   2.079       .  S
N302        C303   1.349       .  A
N302       Cu308   2.092       .  S
C303        C304   1.392       .  A
C303        H306   1.081       .  S
C304        C535   1.494       .  S
C304        C305   1.389       .  A
C305        H307   1.081       .  S
Cu308       N311   2.093       .  S
Cu309       N319   2.078       .  S
Cu310       N312   2.074       .  S
Cu310       N318   2.074       .  S
N311        N312   1.324       .  A
N311        C315   1.348       .  A
N312        C313   1.345       .  A
C313        C314   1.379       .  A
C313        H316   1.082       .  S
C314        C315   1.385       .  A
C315        H317   1.082       .  S
N318        N319   1.320       .  A
N318        C322   1.347       .  A
N319        C320   1.344       .  A
C320        C321   1.389       .  A
C320        H323   1.081       .  S
C321        C511   1.488       .  S
C321        C322   1.389       .  A
C322        H324   1.081       .  S
N325        N326   1.320       .  A
N325        C329   1.345       .  A
N325       Cu333   2.078       .  S
N326        C327   1.347       .  A
N326       Cu332   2.081       .  S
C327        C328   1.391       .  A
C327        H330   1.081       .  S
C328        C487   1.493       .  S
C328        C329   1.390       .  A
C329        H331   1.081       .  S
Cu332       N335   2.082   1_655  S
Cu333       N343   2.078       .  S
Cu334       N336   2.083       .  S
Cu334       N342   2.083       .  S
N335        N336   1.324       .  A
N335        C339   1.346       .  A
N336        C337   1.348       .  A
C337        C338   1.382       .  A
C337        H340   1.082       .  S
C338        C339   1.381       .  A
C339        H341   1.082       .  S
N342        N343   1.322   1_455  A
N342        C346   1.347       .  A
N343        C344   1.345       .  A
C344        C345   1.386   1_655  A
C344        H347   1.082       .  S
C345        C474   1.483       .  S
C345        C346   1.387       .  A
C346        H348   1.082       .  S
N349        N350   1.322       .  A
N349        C353   1.342       .  A
N349       Cu357   2.075       .  S
N350        C351   1.348       .  A
N350       Cu356   2.076       .  S
C351        C352   1.387       .  A
C351        H354   1.082       .  S
C352        C439   1.482       .  S
C352        C353   1.386       .  A
C353        H355   1.082       .  S
Cu356       N359   2.076       .  S
Cu357       N367   2.075       .  S
Cu358       N360   2.076       .  S
Cu358       N366   2.076       .  S
N359        N360   1.324       .  A
N359        C363   1.346       .  A
N360        C361   1.345       .  A
C361        C362   1.380       .  A
C361        H364   1.082   1_545  S
C362        C363   1.381       .  A
C363        H365   1.082       .  S
N366        N367   1.320       .  A
N366        C370   1.346       .  A
N367        C368   1.345       .  A
C368        C369   1.389       .  A
C368        H371   1.081       .  S
C369        C415   1.488       .  S
C369        C370   1.389       .  A
C370        H372   1.081   1_545  S
O373       Cu381   2.017   1_545  S
O373        C383   1.279       .  A
O374       Cu381   2.019   1_556  S
O374        C384   1.279       .  A
O375       Cu381   2.036       .  S
O375        C385   1.281       .  A
O376       Cu381   2.030   1_545  S
O376        C386   1.280       .  A
O377       Cu382   2.004   1_545  S
O377        C386   1.278       .  A
O378       Cu382   1.998       .  S
O378        C385   1.277       .  A
O379       Cu382   1.998   1_556  S
O379        C384   1.277       .  A
O380       Cu382   2.003   1_545  S
O380        C383   1.278       .  A
Cu381      Cu382   2.370       .  S
C383        C583   1.482       .  S
C384        C450   1.477       .  S
C385        C546   1.487       .  S
C386        C775   1.486       .  S
O387       Cu395   2.017   1_455  S
O387        C397   1.279       .  A
O388       Cu395   2.021       .  S
O388        C398   1.279       .  A
O389       Cu395   2.032   1_545  S
O389        C399   1.281       .  A
O390       Cu395   2.034       .  S
O390        C400   1.281       .  A
O391       Cu396   2.003       .  S
O391        C400   1.277       .  A
O392       Cu396   2.005   1_545  S
O392        C399   1.278       .  A
O393       Cu396   2.010       .  S
O393        C398   1.279       .  A
O394       Cu396   2.013   1_455  S
O394        C397   1.279       .  A
Cu395      Cu396   2.368       .  S
C397        C882   1.486       .  S
C398        C426   1.485       .  S
C399        C727   1.489       .  S
C400        C498   1.488       .  S
O401       Cu409   2.028   1_655  S
O401        C411   1.280       .  A
O402       Cu409   2.031       .  S
O402        C412   1.281       .  A
O403       Cu409   2.009   1_554  S
O403        C413   1.278       .  A
O404       Cu409   2.019       .  S
O404        C414   1.278       .  A
O405       Cu410   1.996       .  S
O405        C414   1.277       .  A
O406       Cu410   2.000   1_554  S
O406        C413   1.278       .  A
O407       Cu410   1.990       .  S
O407        C412   1.276       .  A
O408       Cu410   1.999   1_655  S
O408        C411   1.278       .  A
Cu409      Cu410   2.372       .  S
C411        C522   1.485       .  S
C412        C930   1.479       .  S
C413        C642   1.478       .  S
C414        C463   1.471       .  S
C415        C416   1.407       .  A
C415        C420   1.405       .  A
C416        C417   1.402       .  A
C416        H429   1.082       .  S
C417        C418   1.404       .  A
C417        H430   1.083       .  S
C418        C419   1.408       .  A
C418        C421   1.492       .  S
C419        C420   1.397       .  A
C419        H431   1.081       .  S
C420        H432   1.081       .  S
C421        C422   1.349   1_545  D
C421        H433   1.084       .  S
C422        C423   1.489       .  S
C422        H434   1.085       .  S
C423        C424   1.403       .  A
C423        C428   1.409       .  A
C424        C425   1.396       .  A
C424        H435   1.083       .  S
C425        C426   1.404       .  A
C425        H436   1.083       .  S
C426        C427   1.408       .  A
C427        C428   1.404       .  A
C427        H437   1.083   1_565  S
C428        H438   1.081       .  S
C439        C440   1.408       .  A
C439        C444   1.403       .  A
C440        C441   1.403       .  A
C440        H453   1.082       .  S
C441        C442   1.404       .  A
C441        H454   1.083       .  S
C442        C443   1.406       .  A
C442        C445   1.486       .  S
C443        C444   1.393       .  A
C443        H455   1.083       .  S
C444        H456   1.082       .  S
C445        C446   1.348       .  D
C445        H457   1.084       .  S
C446        C447   1.486       .  S
C446        H458   1.087       .  S
C447        C448   1.404   1_545  A
C447        C452   1.409       .  A
C448        C449   1.394       .  A
C448        H459   1.084       .  S
C449        C450   1.403       .  A
C449        H460   1.083       .  S
C450        C451   1.405   1_565  A
C451        C452   1.402       .  A
C451        H461   1.083       .  S
C452        H462   1.081       .  S
C463        C464   1.403   1_455  A
C463        C468   1.402       .  A
C464        C465   1.402       .  A
C464        H477   1.083       .  S
C465        C466   1.405       .  A
C465        H478   1.083       .  S
C466        C467   1.405   1_655  A
C466        C469   1.482       .  S
C467        C468   1.395       .  A
C467        H479   1.083       .  S
C468        H480   1.084       .  S
C469        C470   1.345   1_655  D
C469        H481   1.086       .  S
C470        C471   1.482       .  S
C470        H482   1.087       .  S
C471        C472   1.403       .  A
C471        C476   1.406   1_455  A
C472        C473   1.400       .  A
C472        H483   1.083       .  S
C473        C474   1.406       .  A
C473        H484   1.082       .  S
C474        C475   1.406   1_455  A
C475        C476   1.399       .  A
C475        H485   1.083       .  S
C476        H486   1.083       .  S
C487        C488   1.407       .  A
C487        C492   1.407       .  A
C488        C489   1.401       .  A
C488        H501   1.081       .  S
C489        C490   1.405       .  A
C489        H502   1.083       .  S
C490        C491   1.410       .  A
C490        C493   1.497       .  S
C491        C492   1.400       .  A
C491        H503   1.080       .  S
C492        H504   1.081       .  S
C493        C494   1.351       .  D
C493        H505   1.084       .  S
C494        C495   1.494       .  S
C494        H506   1.083       .  S
C495        C496   1.404       .  A
C495        C500   1.411       .  A
C496        C497   1.397       .  A
C496        H507   1.084       .  S
C497        C498   1.406       .  A
C497        H508   1.083       .  S
C498        C499   1.407       .  A
C499        C500   1.405       .  A
C499        H509   1.083       .  S
C500        H510   1.081       .  S
C511        C512   1.408       .  A
C511        C516   1.405       .  A
C512        C513   1.402       .  A
C512        H525   1.082       .  S
C513        C514   1.404       .  A
C513        H526   1.083       .  S
C514        C515   1.408       .  A
C514        C517   1.492       .  S
C515        C516   1.397       .  A
C515        H527   1.081       .  S
C516        H528   1.082       .  S
C517        C518   1.349       .  D
C517        H529   1.084       .  S
C518        C519   1.492       .  S
C518        H530   1.085       .  S
C519        C520   1.403   1_554  A
C519        C524   1.411       .  A
C520        C521   1.394       .  A
C520        H531   1.084       .  S
C521        C522   1.405       .  A
C521        H532   1.083       .  S
C522        C523   1.407   1_556  A
C523        C524   1.405       .  A
C523        H533   1.083       .  S
C524        H534   1.080       .  S
C535        C536   1.406       .  A
C535        C540   1.409       .  A
C536        C537   1.397       .  A
C536        H549   1.081       .  S
C537        C538   1.404       .  A
C537        H550   1.084       .  S
C538        C539   1.409       .  A
C538        C541   1.495       .  S
C539        C540   1.405       .  A
C539        H551   1.080       .  S
C540        H552   1.082       .  S
C541        C542   1.352       .  D
C541        H553   1.085       .  S
C542        C543   1.495       .  S
C542        H554   1.083       .  S
C543        C544   1.407       .  A
C543        C548   1.407       .  A
C544        C545   1.406       .  A
C544        H555   1.083       .  S
C545        C546   1.407       .  A
C545        H556   1.083       .  S
C546        C547   1.406       .  A
C547        C548   1.396       .  A
C547        H557   1.083       .  S
C548        H558   1.081       .  S
C559        C560   1.404   1_545  A
C559        C564   1.406       .  A
C560        C561   1.394       .  A
C560        H573   1.082       .  S
C561        C562   1.403       .  A
C561        H574   1.084       .  S
C562        C563   1.412   1_565  A
C562        C565   1.493       .  S
C563        C564   1.406       .  A
C563        H575   1.080       .  S
C564        H576   1.083       .  S
C565        C566   1.349   1_565  D
C565        H577   1.086       .  S
C566        C567   1.491       .  S
C566        H578   1.083       .  S
C567        C568   1.404       .  A
C567        C572   1.407       .  A
C568        C569   1.403       .  A
C568        H579   1.083       .  S
C569        C570   1.407       .  A
C569        H580   1.083       .  S
C570        C571   1.406       .  A
C571        C572   1.397       .  A
C571        H581   1.083       .  S
C572        H582   1.082       .  S
C583        C584   1.405       .  A
C583        C588   1.405       .  A
C584        C585   1.396       .  A
C584        H597   1.083   1_545  S
C585        C586   1.404       .  A
C585        H598   1.084       .  S
C586        C587   1.410       .  A
C586        C589   1.490       .  S
C587        C588   1.400       .  A
C587        H599   1.080       .  S
C588        H600   1.082       .  S
C589        C590   1.349       .  D
C589        H601   1.086       .  S
C590        C591   1.487       .  S
C590        H602   1.083       .  S
C591        C592   1.404       .  A
C591        C596   1.406       .  A
C592        C593   1.401       .  A
C592        H603   1.083       .  S
C593        C594   1.405       .  A
C593        H604   1.082       .  S
C594        C595   1.406       .  A
C595        C596   1.396       .  A
C595        H605   1.082       .  S
C596        H606   1.082       .  S
C607        C608   1.404       .  A
C607        C612   1.408       .  A
C608        C609   1.391       .  A
C608        H621   1.083       .  S
C609        C610   1.401       .  A
C609        H622   1.084       .  S
C610        C611   1.409       .  A
C610        C613   1.484       .  S
C611        C612   1.405       .  A
C611        H623   1.081       .  S
C612        H624   1.083       .  S
C613        C614   1.346       .  D
C613        H625   1.086       .  S
C614        C615   1.487       .  S
C614        H626   1.084       .  S
C615        C616   1.402       .  A
C615        C620   1.407       .  A
C616        C617   1.401       .  A
C616        H627   1.083       .  S
C617        C618   1.408       .  A
C617        H628   1.082       .  S
C618        C619   1.404       .  A
C619        C620   1.394       .  A
C619        H629   1.082       .  S
C620        H630   1.082       .  S
C631        C632   1.406       .  A
C631        C636   1.404       .  A
C632        C633   1.398       .  A
C632        H645   1.082       .  S
C633        C634   1.402       .  A
C633        H646   1.083       .  S
C634        C635   1.407       .  A
C634        C637   1.484       .  S
C635        C636   1.395       .  A
C635        H647   1.082       .  S
C636        H648   1.082       .  S
C637        C638   1.346       .  D
C637        H649   1.084       .  S
C638        C639   1.483       .  S
C638        H650   1.085       .  S
C639        C640   1.403       .  A
C639        C644   1.408       .  A
C640        C641   1.394       .  A
C640        H651   1.084       .  S
C641        C642   1.404       .  A
C641        H652   1.083       .  S
C642        C643   1.405       .  A
C643        C644   1.399       .  A
C643        H653   1.083       .  S
C644        H654   1.081       .  S
C655        C656   1.407       .  A
C655        C660   1.404       .  A
C656        C657   1.402       .  A
C656        H669   1.083       .  S
C657        C658   1.404       .  A
C657        H670   1.083       .  S
C658        C659   1.406       .  A
C658        C661   1.486       .  S
C659        C660   1.393       .  A
C659        H671   1.082       .  S
C660        H672   1.083       .  S
C661        C662   1.348       .  D
C661        H673   1.083   1_655  S
C662        C663   1.488       .  S
C662        H674   1.086       .  S
C663        C664   1.403       .  A
C663        C668   1.410       .  A
C664        C665   1.393       .  A
C664        H675   1.084       .  S
C665        C666   1.403       .  A
C665        H676   1.082       .  S
C666        C667   1.406       .  A
C667        C668   1.402       .  A
C667        H677   1.082   1_655  S
C668        H678   1.080   1_655  S
C679        C680   1.405       .  A
C679        C684   1.406   1_655  A
C680        C681   1.396       .  A
C680        H693   1.082       .  S
C681        C682   1.403       .  A
C681        H694   1.084       .  S
C682        C683   1.409   1_655  A
C682        C685   1.489       .  S
C683        C684   1.401       .  A
C683        H695   1.080       .  S
C684        H696   1.082       .  S
C685        C686   1.349   1_655  D
C685        H697   1.085       .  S
C686        C687   1.489       .  S
C686        H698   1.084       .  S
C687        C688   1.405       .  A
C687        C692   1.407       .  A
C688        C689   1.401       .  A
C688        H699   1.083       .  S
C689        C690   1.406       .  A
C689        H700   1.083       .  S
C690        C691   1.405       .  A
C691        C692   1.396       .  A
C691        H701   1.083       .  S
C692        H702   1.081       .  S
C703        C704   1.402       .  A
C703        C708   1.406       .  A
C704        C705   1.392       .  A
C704        H717   1.082       .  S
C705        C706   1.403       .  A
C705        H718   1.084       .  S
C706        C707   1.410       .  A
C706        C709   1.487       .  S
C707        C708   1.404       .  A
C707        H719   1.080       .  S
C708        H720   1.083       .  S
C709        C710   1.348       .  D
C709        H721   1.086       .  S
C710        C711   1.487       .  S
C710        H722   1.084       .  S
C711        C712   1.404       .  A
C711        C716   1.407       .  A
C712        C713   1.403       .  A
C712        H723   1.083       .  S
C713        C714   1.408       .  A
C713        H724   1.083       .  S
C714        C715   1.403       .  A
C715        C716   1.393       .  A
C715        H725   1.083       .  S
C716        H726   1.082       .  S
C727        C728   1.406       .  A
C727        C732   1.407       .  A
C728        C729   1.397       .  A
C728        H741   1.083       .  S
C729        C730   1.404       .  A
C729        H742   1.084       .  S
C730        C731   1.410       .  A
C730        C733   1.494       .  S
C731        C732   1.405       .  A
C731        H743   1.080       .  S
C732        H744   1.083       .  S
C733        C734   1.351       .  D
C733        H745   1.085       .  S
C734        C735   1.494       .  S
C734        H746   1.083       .  S
C735        C736   1.406       .  A
C735        C740   1.407       .  A
C736        C737   1.404       .  A
C736        H747   1.083       .  S
C737        C738   1.407       .  A
C737        H748   1.082       .  S
C738        C739   1.407       .  A
C739        C740   1.397       .  A
C739        H749   1.082       .  S
C740        H750   1.081       .  S
C751        C752   1.407       .  A
C751        C756   1.407       .  A
C752        C753   1.407       .  A
C752        H765   1.083       .  S
C753        C754   1.408       .  A
C753        H766   1.083       .  S
C754        C755   1.407       .  A
C754        C757   1.498       .  S
C755        C756   1.397       .  A
C755        H767   1.081       .  S
C756        H768   1.083       .  S
C757        C758   1.353       .  D
C757        H769   1.084       .  S
C758        C759   1.497       .  S
C758        H770   1.085   1_556  S
C759        C760   1.405   1_556  A
C759        C764   1.411       .  A
C760        C761   1.397       .  A
C760        H771   1.083       .  S
C761        C762   1.404   1_554  A
C761        H772   1.082       .  S
C762        C763   1.408       .  A
C763        C764   1.408       .  A
C763        H773   1.083       .  S
C764        H774   1.081       .  S
C775        C776   1.407       .  A
C775        C780   1.405   1_554  A
C776        C777   1.405       .  A
C776        H789   1.083       .  S
C777        C778   1.407       .  A
C777        H790   1.083       .  S
C778        C779   1.408   1_554  A
C778        C781   1.495       .  S
C779        C780   1.396       .  A
C779        H791   1.082       .  S
C780        H792   1.083       .  S
C781        C782   1.352       .  D
C781        H793   1.084       .  S
C782        C783   1.494       .  S
C782        H794   1.085       .  S
C783        C784   1.404       .  A
C783        C788   1.409       .  A
C784        C785   1.396       .  A
C784        H795   1.084       .  S
C785        C786   1.405       .  A
C785        H796   1.081       .  S
C786        C787   1.410       .  A
C787        C788   1.406       .  A
C787        H797   1.082       .  S
C788        H798   1.080       .  S
C799        C800   1.406   1_545  A
C799        C804   1.406       .  A
C800        C801   1.399       .  A
C800        H813   1.082       .  S
C801        C802   1.403   1_565  A
C801        H814   1.083       .  S
C802        C803   1.408       .  A
C802        C805   1.489       .  S
C803        C804   1.398       .  A
C803        H815   1.081       .  S
C804        H816   1.082       .  S
C805        C806   1.349       .  D
C805        H817   1.082       .  S
C806        C807   1.492       .  S
C806        H818   1.084       .  S
C807        C808   1.404       .  A
C807        C812   1.411       .  A
C808        C809   1.396       .  A
C808        H819   1.083   1_545  S
C809        C810   1.405       .  A
C809        H820   1.083   1_545  S
C810        C811   1.405       .  A
C811        C812   1.401       .  A
C811        H821   1.083       .  S
C812        H822   1.079       .  S
C823        C824   1.403       .  A
C823        C828   1.405   1_545  A
C824        C825   1.394       .  A
C824        H837   1.083       .  S
C825        C826   1.404       .  A
C825        H838   1.084       .  S
C826        C827   1.411   1_545  A
C826        C829   1.490       .  S
C827        C828   1.404       .  A
C827        H839   1.080       .  S
C828        H840   1.083       .  S
C829        C830   1.349   1_545  D
C829        H841   1.086       .  S
C830        C831   1.490       .  S
C830        H842   1.083       .  S
C831        C832   1.405       .  A
C831        C836   1.407       .  A
C832        C833   1.403       .  A
C832        H843   1.083       .  S
C833        C834   1.406       .  A
C833        H844   1.082       .  S
C834        C835   1.405       .  A
C835        C836   1.395       .  A
C835        H845   1.083       .  S
C836        H846   1.082       .  S
C847        C848   1.405       .  A
C847        C852   1.406       .  A
C848        C849   1.394   1_565  A
C848        H861   1.081   1_565  S
C849        C850   1.403   1_545  A
C849        H862   1.084       .  S
C850        C851   1.409       .  A
C850        C853   1.488   1_565  S
C851        C852   1.402       .  A
C851        H863   1.080       .  S
C852        H864   1.082       .  S
C853        C854   1.348   1_545  D
C853        H865   1.086       .  S
C854        C855   1.488       .  S
C854        H866   1.084       .  S
C855        C856   1.404       .  A
C855        C860   1.407       .  A
C856        C857   1.402       .  A
C856        H867   1.083       .  S
C857        C858   1.406       .  A
C857        H868   1.081       .  S
C858        C859   1.405       .  A
C859        C860   1.394       .  A
C859        H869   1.083       .  S
C860        H870   1.082       .  S
C871        C872   1.405       .  A
C871        C876   1.407       .  A
C872        C873   1.394       .  A
C872        H885   1.081       .  S
C873        C874   1.403       .  A
C873        H886   1.084   1_565  S
C874        C875   1.412       .  A
C874        C877   1.494       .  S
C875        C876   1.407       .  A
C875        H887   1.080       .  S
C876        H888   1.083       .  S
C877        C878   1.349       .  D
C877        H889   1.085   1_565  S
C878        C879   1.495       .  S
C878        H890   1.083       .  S
C879        C880   1.405       .  A
C879        C884   1.410       .  A
C880        C881   1.402       .  A
C880        H891   1.083       .  S
C881        C882   1.407       .  A
C881        H892   1.083       .  S
C882        C883   1.405       .  A
C883        C884   1.398       .  A
C883        H893   1.083       .  S
C884        H894   1.081       .  S
C895        C896   1.405       .  A
C895        C900   1.408   1_554  A
C896        C897   1.391       .  A
C896        H909   1.083       .  S
C897        C898   1.400       .  A
C897        H910   1.084       .  S
C898        C899   1.411   1_554  A
C898        C901   1.486       .  S
C899        C900   1.408       .  A
C899        H911   1.082       .  S
C900        H912   1.083       .  S
C901        C902   1.346   1_554  D
C901        H913   1.086       .  S
C902        C903   1.491       .  S
C902        H914   1.085       .  S
C903        C904   1.402       .  A
C903        C908   1.409       .  A
C904        C905   1.401       .  A
C904        H915   1.083       .  S
C905        C906   1.410       .  A
C905        H916   1.081       .  S
C906        C907   1.405       .  A
C907        C908   1.398       .  A
C907        H917   1.081       .  S
C908        H918   1.082       .  S
C919        C920   1.408       .  A
C919        C924   1.405   1_554  A
C920        C921   1.402       .  A
C920        H933   1.082       .  S
C921        C922   1.403       .  A
C921        H934   1.083       .  S
C922        C923   1.408   1_554  A
C922        C925   1.489   1_554  S
C923        C924   1.397       .  A
C923        H935   1.082       .  S
C924        H936   1.081       .  S
C925        C926   1.347       .  D
C925        H937   1.085   1_556  S
C926        C927   1.486       .  S
C926        H938   1.086       .  S
C927        C928   1.402       .  A
C927        C932   1.410       .  A
C928        C929   1.393       .  A
C928        H939   1.084       .  S
C929        C930   1.404       .  A
C929        H940   1.083       .  S
C930        C931   1.406       .  A
C931        C932   1.405       .  A
C931        H941   1.083   1_556  S
C932        H942   1.081   1_556  S
C943        C944   1.405       .  A
C943        C948   1.407   1_554  A
C944        C945   1.391       .  A
C944        H957   1.083       .  S
C945        C946   1.401       .  A
C945        H958   1.084       .  S
C946        C947   1.411   1_554  A
C946        C949   1.488       .  S
C947        C948   1.407       .  A
C947        H959   1.081       .  S
C948        H960   1.083       .  S
C949        C950   1.347   1_554  D
C949        H961   1.086       .  S
C950        C951   1.489       .  S
C950        H962   1.084       .  S
C951        C952   1.402       .  A
C951        C956   1.407       .  A
C952        C953   1.402       .  A
C952        H963   1.083       .  S
C953        C954   1.410       .  A
C953        H964   1.081       .  S
C954        C955   1.406       .  A
C955        C956   1.396       .  A
C955        H965   1.081       .  S
C956        H966   1.082       .  S
C967        C968   1.404       .  A
C967        C972   1.407       .  A
C968        C969   1.398       .  A
C968        H981   1.082       .  S
C969        C970   1.406       .  A
C969        H982   1.083       .  S
C970        C971   1.410       .  A
C970        C973   1.496       .  S
C971        C972   1.404       .  A
C971        H983   1.080       .  S
C972        H984   1.082       .  S
C973        C974   1.353       .  D
C973        H985   1.085       .  S
C974        C975   1.496       .  S
C974        H986   1.083       .  S
C975        C976   1.408       .  A
C975        C980   1.407       .  A
C976        C977   1.406       .  A
C976        H987   1.083       .  S
C977        C978   1.406       .  A
C977        H988   1.082       .  S
C978        C979   1.406       .  A
C979        C980   1.396       .  A
C979        H989   1.083       .  S
C980        H990   1.081       .  S
