geometry optimzed in LAMMPS
_audit_creation_date              2020-11-30 
_audit_creation_method            'lammps2cif' 
_symmetry_space_group_name_H-M    'P1' 
_symmetry_Int_Tables_number       1 
_symmetry_cell_setting            triclinic 
loop_ 
_symmetry_equiv_pos_as_xyz 
  x,y,z 
_cell_length_a                    55.51009464 
_cell_length_b                    36.37179058847808 
_cell_length_c                    64.68043717540812 
_cell_angle_alpha                 89.95481623693234 
_cell_angle_beta                  131.86949484028298 
_cell_angle_gamma                 90.08579674988344 
loop_ 
_atom_site_label 
_atom_site_type_symbol 
_atom_site_fract_x 
_atom_site_fract_y 
_atom_site_fract_z 
_atom_site_charge 
O1          O  0.49368935  0.99989480  0.46129622    -0.73000
O2          O  0.03679815  0.03787344  0.03719166    -0.74000
O3          O  0.04900537  0.47983502  0.01553123    -0.62600
O4          O  0.48067273  0.05776104  0.48187737    -0.71000
O5          O  0.45125841  0.02040640  0.48470036    -0.70600
O6          O  0.01958709  0.44248067  0.01834997    -0.61800
O7          O  0.00657314  0.50033674  0.03892568    -0.74300
O8          O  0.46346416  0.46236140  0.46303037    -0.73100
Cu9        Cu  0.01609234  0.02021459  0.49893495     1.04600
Cu10       Cu  0.48416810  0.48002358  0.00128866     1.04300
C11         C  0.47198189  0.47505137  0.45029747     0.93200
C12         C  0.02828528  0.02517486  0.04992608     0.92300
C13         C  0.04493397  0.44885431  0.02212804     0.84500
C14         C  0.45533333  0.05139254  0.47811237     0.90700
N15         N  0.39187980  0.11579212  0.45611796    -0.27400
N16         N  0.39576465  0.12404409  0.43856149    -0.35200
C17         C  0.41945371  0.10303918  0.44420248     0.01000
C18         C  0.43051575  0.07993218  0.46590964     0.07000
C19         C  0.41248477  0.08854624  0.47292957    -0.06100
H20         H  0.42714546  0.10356384  0.43262059     0.07700
H21         H  0.41446786  0.07626396  0.48925264     0.08900
Cu22       Cu  0.36655076  0.16015746  0.40553458     0.44200
Cu23       Cu  0.35978377  0.14314688  0.45721149     0.42000
Cu24       Cu  0.30818739  0.20959726  0.40151203     0.43900
N25         N  0.33077787  0.19198503  0.37150268    -0.34700
N26         N  0.30930183  0.21049137  0.37015086    -0.29000
C27         C  0.28854405  0.22724298  0.34532709    -0.05100
C28         C  0.29723631  0.21857565  0.33023913     0.07100
C29         C  0.32412782  0.19618529  0.34745384     0.00900
H30         H  0.26813979  0.24370916  0.33850790     0.08600
H31         H  0.33754692  0.18341568  0.34271508     0.07600
N32         N  0.31007098  0.20297896  0.43436262    -0.36200
N33         N  0.32832281  0.17861769  0.45449977    -0.28400
C34         C  0.32304277  0.18145433  0.47196799    -0.03600
C35         C  0.30039195  0.20900561  0.46235232     0.05000
C36         C  0.29282663  0.22192079  0.43845881     0.03100
H37         H  0.33499076  0.16478347  0.49036216     0.08200
H38         H  0.27553673  0.24307109  0.42459863     0.07000
N39         N  0.10844520  0.38450516  0.04420264    -0.28000
N40         N  0.10446435  0.37616706  0.06168528    -0.35200
C41         C  0.08074495  0.39715033  0.05600853     0.01000
C42         C  0.06976396  0.42032680  0.03435607     0.07000
C43         C  0.08787482  0.41178037  0.02740708    -0.06100
H44         H  0.07297162  0.39655680  0.06752689     0.07700
H45         H  0.08596391  0.42412174  0.01113668     0.08900
Cu46       Cu  0.13358300  0.33995641  0.09466433     0.44200
Cu47       Cu  0.14059009  0.35721963  0.04314593     0.42000
Cu48       Cu  0.19201682  0.29062711  0.09871846     0.43900
N49         N  0.16935476  0.30810912  0.12868790    -0.34700
N50         N  0.19085323  0.28964780  0.13004631    -0.29000
C51         C  0.21163676  0.27292015  0.15487683    -0.05100
C52         C  0.20294350  0.28156093  0.16996644     0.07100
C53         C  0.17601797  0.30390297  0.15274235     0.00900
H54         H  0.23207078  0.25650870  0.16170544     0.08600
H55         H  0.16259651  0.31665387  0.15748485     0.07600
N56         N  0.19023056  0.29733942  0.06593122    -0.36200
N57         N  0.17203203  0.32175880  0.04583174    -0.28400
C58         C  0.17733151  0.31895375  0.02837575    -0.03600
C59         C  0.19994093  0.29136031  0.03796113     0.05000
C60         C  0.20746365  0.27839209  0.06182616     0.03100
H61         H  0.16541454  0.33566490  0.01000458     0.08200
H62         H  0.22470505  0.25718890  0.07565507     0.07000
O63         O  0.21173026  0.28451131  0.21139691    -0.73000
O64         O  0.25782626  0.25351261  0.28969692    -0.74000
O65         O  0.26803162  0.30889783  0.26564739    -0.62600
O66         O  0.20225762  0.22900311  0.23646958    -0.71000
O67         O  0.23220906  0.19129947  0.23457876    -0.70600
O68         O  0.29798520  0.27119604  0.26375857    -0.61800
O69         O  0.28850215  0.21567473  0.28883013    -0.74300
O70         O  0.24240650  0.24667870  0.21052693    -0.73100
Cu71       Cu  0.23388366  0.27036860  0.25079047     1.04600
Cu72       Cu  0.26635659  0.22982627  0.24943714     1.04300
C73         C  0.21974095  0.27040572  0.19861757     0.93200
C74         C  0.28047801  0.22976888  0.30160272     0.92300
C75         C  0.29343375  0.30251088  0.26954773     0.84500
C76         C  0.20680656  0.19769017  0.23067702     0.90700
N77         N  0.14173469  0.13486322  0.20693824    -0.27400
N78         N  0.14430346  0.12889621  0.18829867    -0.35200
C79         C  0.16886174  0.14907274  0.19481971     0.01000
C80         C  0.18196835  0.16918551  0.21834208     0.07000
C81         C  0.16412877  0.15982291  0.22543113    -0.06100
H82         H  0.17548954  0.15053262  0.18245174     0.07700
H83         H  0.16702678  0.17051589  0.24258669     0.08900
Cu84       Cu  0.11217156  0.09751774  0.15279954     0.44200
Cu85       Cu  0.10801687  0.10858830  0.20635485     0.42000
Cu86       Cu  0.04998395  0.05164959  0.14606463     0.43900
N87         N  0.07541312  0.06748895  0.11802214    -0.34700
N88         N  0.05287660  0.05027034  0.11591222    -0.29000
C89         C  0.03290432  0.03259897  0.09148065    -0.05100
C90         C  0.04321757  0.03923765  0.07743063     0.07100
C91         C  0.07015979  0.06157255  0.09474659     0.00900
H92         H  0.01228818  0.01629473  0.08442819     0.08600
H93         H  0.08500017  0.07240702  0.09087739     0.07600
N94         N  0.05233643  0.05565587  0.17917036    -0.36200
N95         N  0.07352608  0.07622067  0.20129233    -0.28400
C96         C  0.06922907  0.07157540  0.21926788    -0.03600
C97         C  0.04401391  0.04683753  0.20790649     0.05000
C98         C  0.03395221  0.03747575  0.18237380     0.03100
H99         H  0.08374168  0.08510033  0.23921148     0.08200
H100        H  0.01497201  0.01850935  0.16719551     0.07000
N101        N  0.35846898  0.36538330  0.29324917    -0.27400
N102        N  0.35593864  0.37131426  0.31191611    -0.35200
C103        C  0.33139911  0.35111593  0.30541343     0.01000
C104        C  0.31826660  0.33102447  0.28187559     0.07000
C105        C  0.33607029  0.34042541  0.27475707    -0.06100
H106        H  0.32480266  0.34962545  0.31780365     0.07700
H107        H  0.33314646  0.32975774  0.25758308     0.08900
Cu108      Cu  0.38810757  0.40266889  0.34742881     0.44200
Cu109      Cu  0.39215809  0.39169033  0.29381032     0.42000
Cu110      Cu  0.45025216  0.44859143  0.35413450     0.43900
N111        N  0.42487451  0.43269571  0.38221195    -0.34700
N112        N  0.44739446  0.44993931  0.38431069    -0.29000
C113        C  0.46736160  0.46762228  0.40873877    -0.05100
C114        C  0.45706108  0.46096871  0.42279797     0.07100
C115        C  0.43013425  0.43860775  0.40549138     0.00900
H116        H  0.48796038  0.48395315  0.41577951     0.08600
H117        H  0.41530271  0.42776111  0.40936657     0.07600
N118        N  0.44787029  0.44458447  0.32101075    -0.36200
N119        N  0.42666166  0.42403897  0.29888116    -0.28400
C120        C  0.43095193  0.42868087  0.28090094    -0.03600
C121        C  0.45618140  0.45339659  0.29226589     0.05000
C122        C  0.46626001  0.46274790  0.31780661     0.03100
H123        H  0.41642328  0.41517108  0.26095070     0.08200
H124        H  0.48525628  0.48169572  0.33299076     0.07000
C125        C  0.45431356  0.95684513  0.21468440    -0.17900
C126        C  0.46661810  0.96977821  0.20294809    -0.20100
C127        C  0.49258241  0.99467821  0.21751305     0.20600
C128        C  0.00629580  0.00664653  0.24415735    -0.03000
C129        C  0.49388295  0.49359203  0.25600241    -0.06000
C130        C  0.46778947  0.96857808  0.24119030     0.20900
C131        C  0.00758707  0.50557346  0.28264125     0.19000
C132        C  0.03353991  0.53048814  0.29720020    -0.17500
C133        C  0.04584583  0.54341871  0.28546511    -0.19800
C134        C  0.03238158  0.53166993  0.25896589     0.20500
C135        C  0.04455887  0.04457496  0.24705472    -0.32800
C136        C  0.03102485  0.03290634  0.22043310     0.01200
C137        C  0.00500412  0.00783647  0.20586087    -0.24100
C138        C  0.45563542  0.45564483  0.25311526    -0.28700
C139        C  0.46916413  0.46732523  0.27973357     0.06900
C140        C  0.49517216  0.49241075  0.29429725    -0.27300
H141        H  0.43425877  0.93764055  0.20302846     0.11600
H142        H  0.45580055  0.96030416  0.18244977     0.12700
H143        H  0.04434944  0.53997322  0.31769412     0.11800
H144        H  0.06589375  0.56263254  0.29711741     0.11100
H145        H  0.06457621  0.06375054  0.25866502     0.16400
H146        H  0.49417892  0.99845291  0.18537678     0.12400
H147        H  0.43562813  0.43645547  0.24151189     0.15200
H148        H  0.00598895  0.50180871  0.31477580     0.15000
C149        C  0.27458088  0.18770837  0.02141751    -0.17900
C150        C  0.26003202  0.19899861  0.03154176    -0.20100
C151        C  0.24414968  0.23302415  0.02362057     0.20600
C152        C  0.24279210  0.25586324  0.00524341    -0.03000
C153        C  0.25748841  0.24447003  0.49503027    -0.06000
C154        C  0.27348589  0.21024634  0.00318366     0.20900
C155        C  0.25613907  0.26731404  0.47665941     0.19000
C156        C  0.24025577  0.30133899  0.46873749    -0.17500
C157        C  0.22570830  0.31262999  0.47886270    -0.19800
C158        C  0.22680451  0.29009293  0.49709740     0.20500
C159        C  0.21240645  0.30130289  0.00746853    -0.32800
C160        C  0.21397550  0.27886949  0.02607463     0.01200
C161        C  0.22974959  0.24464207  0.03386889    -0.24100
C162        C  0.28789165  0.19904054  0.49281850    -0.28700
C163        C  0.28633742  0.22148339  0.47422406     0.06900
C164        C  0.27055348  0.25570459  0.46642200    -0.27300
H165        H  0.28669326  0.16132677  0.02785286     0.11600
H166        H  0.26126064  0.18111743  0.04563146     0.12700
H167        H  0.23903088  0.31922225  0.45465076     0.11800
H168        H  0.21360063  0.33901444  0.47243100     0.11100
H169        H  0.20056548  0.32781281  0.50144695     0.16400
H170        H  0.23078762  0.22682376  0.04786740     0.12400
H171        H  0.29975433  0.17254384  0.99885496     0.15200
H172        H  0.26952426  0.27352577  0.45242923     0.15000
O173        O  0.49368931  0.99989503  0.96129600    -0.73000
O174        O  0.03679813  0.03787287  0.53719207    -0.74000
O175        O  0.04900520  0.47983636  0.51553076    -0.62600
O176        O  0.48067279  0.05776185  0.98187674    -0.71000
O177        O  0.45125825  0.02040781  0.98469981    -0.70600
O178        O  0.01958711  0.44248154  0.51834943    -0.61800
O179        O  0.00657323  0.50033677  0.53892558    -0.74300
O180        O  0.46346423  0.46236066  0.96303075    -0.73100
Cu181      Cu  0.01609236  0.02021480  0.99893457     1.04600
Cu182      Cu  0.48416810  0.48002389  0.50128836     1.04300
C183        C  0.47198214  0.47505021  0.95029790     0.93200
C184        C  0.02828555  0.02517374  0.54992657     0.92300
C185        C  0.04493391  0.44885550  0.52212743     0.84500
C186        C  0.45533335  0.05139376  0.97811171     0.90700
N187        N  0.39188123  0.11579504  0.95611825    -0.27400
N188        N  0.39576459  0.12404543  0.93856060    -0.35200
C189        C  0.41945294  0.10303963  0.94420102     0.01000
C190        C  0.43051600  0.07993373  0.96590903     0.07000
C191        C  0.41248639  0.08854942  0.97293003    -0.06100
H192        H  0.42714357  0.10356294  0.93261825     0.07700
H193        H  0.41447047  0.07626828  0.98925397     0.08900
Cu194      Cu  0.36654969  0.16015816  0.90553314     0.44200
Cu195      Cu  0.35978629  0.14315072  0.95721268     0.42000
Cu196      Cu  0.30818401  0.20959448  0.90150952     0.43900
N197        N  0.33077614  0.19198524  0.87150110    -0.34700
N198        N  0.30929934  0.21049022  0.87014896    -0.29000
C199        C  0.28854160  0.22724219  0.84532535    -0.05100
C200        C  0.29723463  0.21857652  0.83023776     0.07100
C201        C  0.32412655  0.19618668  0.84745254     0.00900
H202        H  0.26813685  0.24370749  0.83850599     0.08600
H203        H  0.33754631  0.18341822  0.84271405     0.07600
N204        N  0.31006863  0.20297754  0.93436074    -0.36200
N205        N  0.32832329  0.17861927  0.95449971    -0.28400
C206        C  0.32304389  0.18145670  0.97196832    -0.03600
C207        C  0.30039046  0.20900530  0.96235099     0.05000
C208        C  0.29282294  0.22191803  0.93845606     0.03100
H209        H  0.33499412  0.16478815  0.99036391     0.08200
H210        H  0.27553094  0.24306603  0.92459446     0.07000
N211        N  0.10844661  0.38450813  0.54420296    -0.28000
N212        N  0.10446428  0.37616840  0.56168441    -0.35200
C213        C  0.08074413  0.39715073  0.55600706     0.01000
C214        C  0.06976407  0.42032826  0.53435542     0.07000
C215        C  0.08787637  0.41178356  0.52740757    -0.06100
H216        H  0.07296964  0.39655587  0.56752456     0.07700
H217        H  0.08596647  0.42412617  0.51113803     0.08900
Cu218      Cu  0.13358185  0.33995692  0.59466283     0.44200
Cu219      Cu  0.14059259  0.35722349  0.54314711     0.42000
Cu220      Cu  0.19201325  0.29062432  0.59871592     0.43900
N221        N  0.16935286  0.30810935  0.62868629    -0.34700
N222        N  0.19085053  0.28964663  0.63004434    -0.29000
C223        C  0.21163407  0.27291933  0.65487498    -0.05100
C224        C  0.20294169  0.28156184  0.66996503     0.07100
C225        C  0.17601657  0.30390442  0.65274103     0.00900
H226        H  0.23206757  0.25650687  0.66170337     0.08600
H227        H  0.16259574  0.31665655  0.65748382     0.07600
N228        N  0.19022805  0.29733797  0.56592926    -0.36200
N229        N  0.17203238  0.32176034  0.54583161    -0.28400
C230        C  0.17733250  0.31895615  0.52837602    -0.03600
C231        C  0.19993930  0.29136002  0.53795972     0.05000
C232        C  0.20745980  0.27838935  0.56182330     0.03100
H233        H  0.16541782  0.33566961  0.51000633     0.08200
H234        H  0.22469910  0.25718380  0.57565077     0.07000
O235        O  0.21172869  0.28451312  0.71139564    -0.73000
O236        O  0.25782464  0.25351410  0.78969578    -0.74000
O237        O  0.26803001  0.30889955  0.76564633    -0.62600
O238        O  0.20225597  0.22900503  0.73646846    -0.71000
O239        O  0.23220731  0.19130126  0.73457762    -0.70600
O240        O  0.29798340  0.27119777  0.76375727    -0.61800
O241        O  0.28850054  0.21567647  0.78882883    -0.74300
O242        O  0.24240472  0.24668013  0.71052567    -0.73100
Cu243      Cu  0.23388203  0.27037038  0.75078932     1.04600
Cu244      Cu  0.26635482  0.22982798  0.74943587     1.04300
C245        C  0.21973926  0.27040721  0.69861628     0.93200
C246        C  0.28047641  0.22977036  0.80160148     0.92300
C247        C  0.29343210  0.30251256  0.76954662     0.84500
C248        C  0.20680488  0.19769204  0.73067595     0.90700
N249        N  0.14173356  0.13486462  0.70693792    -0.27400
N250        N  0.14430156  0.12889830  0.68829780    -0.35200
C251        C  0.16885951  0.14907515  0.69481843     0.01000
C252        C  0.18196668  0.16918742  0.71834115     0.07000
C253        C  0.16412775  0.15982426  0.72543074    -0.06100
H254        H  0.17548673  0.15053543  0.68245011     0.07700
H255        H  0.16702630  0.17051683  0.74258671     0.08900
Cu256      Cu  0.11216942  0.09751984  0.65279880     0.44200
Cu257      Cu  0.10801652  0.10858883  0.70635520     0.42000
Cu258      Cu  0.04998339  0.05164982  0.64606459     0.43900
N259        N  0.07541210  0.06748946  0.61802190    -0.34700
N260        N  0.05287602  0.05027008  0.61591222    -0.29000
C261        C  0.03290435  0.03259776  0.59148100    -0.05100
C262        C  0.04321763  0.03923660  0.57743103     0.07100
C263        C  0.07015914  0.06157258  0.59474657     0.00900
H264        H  0.01228858  0.01629296  0.58442872     0.08600
H265        H  0.08499918  0.07240765  0.59087715     0.07600
N266        N  0.05233661  0.05565552  0.67917074    -0.36200
N267        N  0.07352637  0.07622015  0.70129280    -0.28400
C268        C  0.06922993  0.07157406  0.71926865    -0.03600
C269        C  0.04401508  0.04683583  0.70790741     0.05000
C270        C  0.03395290  0.03747471  0.68237445     0.03100
H271        H  0.08374307  0.08509836  0.73921256     0.08200
H272        H  0.01497240  0.01850878  0.66719596     0.07000
N273        N  0.35846794  0.36538457  0.79324886    -0.27400
N274        N  0.35593675  0.37131618  0.81191521    -0.35200
C275        C  0.33139689  0.35111809  0.80541215     0.01000
C276        C  0.31826507  0.33102609  0.78187469     0.07000
C277        C  0.33606950  0.34042647  0.77475679    -0.06100
H278        H  0.32479979  0.34962806  0.81780189     0.07700
H279        H  0.33314638  0.32975826  0.75758330     0.08900
Cu280      Cu  0.38810537  0.40267081  0.84742798     0.44200
Cu281      Cu  0.39215801  0.39169053  0.79381068     0.42000
Cu282      Cu  0.45025127  0.44859195  0.85413425     0.43900
N283        N  0.42487342  0.43269621  0.88221165    -0.34700
N284        N  0.44739374  0.44993923  0.88431059    -0.29000
C285        C  0.46736154  0.46762116  0.90873906    -0.05100
C286        C  0.45706109  0.46096767  0.92279832     0.07100
C287        C  0.43013361  0.43860769  0.90549136     0.00900
H288        H  0.48796073  0.48395151  0.91578005     0.08600
H289        H  0.41530181  0.42776147  0.90936642     0.07600
N290        N  0.44787049  0.44458410  0.82101110    -0.36200
N291        N  0.42666223  0.42403807  0.79888173    -0.28400
C292        C  0.43095323  0.42867895  0.78090191    -0.03600
C293        C  0.45618278  0.45339458  0.79226690     0.05000
C294        C  0.46626066  0.46274684  0.81780719     0.03100
H295        H  0.41642539  0.41516812  0.76095212     0.08200
H296        H  0.48525639  0.48169561  0.83299101     0.07000
C297        C  0.45433115  0.95682215  0.71469425    -0.17900
C298        C  0.46663594  0.96975494  0.70295811    -0.20100
C299        C  0.49259273  0.99466502  0.71751897     0.20600
C300        C  0.00629720  0.00664445  0.74415833    -0.03000
C301        C  0.49388439  0.49358979  0.75600339    -0.06000
C302        C  0.46779926  0.96856550  0.74119589     0.20900
C303        C  0.00759951  0.50555731  0.78264831     0.19000
C304        C  0.03356184  0.53045921  0.79721244    -0.17500
C305        C  0.04586735  0.54339028  0.78547709    -0.19800
C306        C  0.03239319  0.53165487  0.75897246     0.20500
C307        C  0.04455373  0.04458170  0.74705218    -0.32800
C308        C  0.03102640  0.03290413  0.72043420     0.01200
C309        C  0.00501240  0.00782521  0.70586562    -0.24100
C310        C  0.45562842  0.45565398  0.75311171    -0.28700
C311        C  0.46916587  0.46732271  0.77973476     0.06900
C312        C  0.49518275  0.49239639  0.79430326    -0.27300
H313        H  0.43428216  0.93760964  0.70304145     0.11600
H314        H  0.45582440  0.96027279  0.68246303     0.12700
H315        H  0.04437905  0.53993393  0.81771053     0.11800
H316        H  0.06592266  0.56259415  0.79713345     0.11100
H317        H  0.06456552  0.06376489  0.75865948     0.16400
H318        H  0.49419560  0.99843099  0.68538618     0.12400
H319        H  0.43561390  0.43647446  0.74150444     0.15200
H320        H  0.00600975  0.50178110  0.81478744     0.15000
C321        C  0.27456936  0.18770179  0.52140886    -0.17900
C322        C  0.26001984  0.19899196  0.53153252    -0.20100
C323        C  0.24414309  0.23302076  0.52361555     0.20600
C324        C  0.24279174  0.25586321  0.50524311    -0.03000
C325        C  0.25748812  0.24447000  0.99503001    -0.06000
C326        C  0.27348062  0.21024308  0.50317977     0.20900
C327        C  0.25613262  0.26731068  0.97665446     0.19000
C328        C  0.24024385  0.30133241  0.96872842    -0.17500
C329        C  0.22569695  0.31262344  0.97885413    -0.19800
C330        C  0.22679930  0.29008969  0.99709352     0.20500
C331        C  0.21241097  0.30130607  0.50747183    -0.32800
C332        C  0.21397400  0.27886928  0.52607334     0.01200
C333        C  0.22974252  0.24463869  0.53386344    -0.24100
C334        C  0.28789628  0.19904370  0.99282185    -0.28700
C335        C  0.28633610  0.22148324  0.97422287     0.06900
C336        C  0.27054659  0.25570122  0.96641668    -0.27300
H337        H  0.28667740  0.16131759  0.52784095     0.11600
H338        H  0.26124358  0.18110810  0.54561855     0.12700
H339        H  0.23901426  0.31921314  0.95463808     0.11800
H340        H  0.21358492  0.33900540  0.97241914     0.11100
H341        H  0.20055655  0.32780728  0.00144027     0.16400
H342        H  0.23077581  0.22681795  0.54785841     0.12400
H343        H  0.29974534  0.17253827  0.49884828     0.15200
H344        H  0.26951265  0.27352008  0.95242034     0.15000
O345        O  0.49368911  0.49989573  0.46129585    -0.73000
O346        O  0.03679800  0.53787326  0.03719172    -0.74000
O347        O  0.04900481  0.97983494  0.01553077    -0.62600
O348        O  0.48067286  0.55776204  0.48187720    -0.71000
O349        O  0.45125833  0.52040763  0.48470009    -0.70600
O350        O  0.01958606  0.94248108  0.01834925    -0.61800
O351        O  0.00657277  0.00033743  0.03892529    -0.74300
O352        O  0.46346454  0.96236030  0.46303081    -0.73100
Cu353      Cu  0.01609219  0.52021551  0.49893459     1.04600
Cu354      Cu  0.48416815  0.98002408  0.00128847     1.04300
C355        C  0.47198217  0.97505038  0.45029788     0.93200
C356        C  0.02828534  0.52517451  0.04992625     0.92300
C357        C  0.04493300  0.94885432  0.02212733     0.84500
C358        C  0.45533345  0.55139375  0.47811221     0.90700
N359        N  0.39188061  0.61579406  0.45611836    -0.27400
N360        N  0.39576487  0.62404544  0.43856143    -0.35200
C361        C  0.41945367  0.60304025  0.44420220     0.01000
C362        C  0.43051611  0.57993364  0.46590967     0.07000
C363        C  0.41248566  0.58854827  0.47293002    -0.06100
H364        H  0.42714494  0.60356436  0.43261993     0.07700
H365        H  0.41446905  0.57626630  0.48925335     0.08900
Cu366      Cu  0.36655049  0.66015838  0.40553419     0.44200
Cu367      Cu  0.35978482  0.64314893  0.45721211     0.42000
Cu368      Cu  0.30818643  0.70959713  0.40151123     0.43900
N369        N  0.33077721  0.69198553  0.37150207    -0.34700
N370        N  0.30930106  0.71049167  0.37015022    -0.29000
C371        C  0.28854320  0.72724323  0.34532645    -0.05100
C372        C  0.29723549  0.71857611  0.33023849     0.07100
C373        C  0.32412709  0.69618590  0.34745322     0.00900
H374        H  0.26813884  0.74370926  0.33850726     0.08600
H375        H  0.33754634  0.68341646  0.34271446     0.07600
N376        N  0.31006996  0.70297874  0.43436178    -0.36200
N377        N  0.32832267  0.67861844  0.45449954    -0.28400
C378        C  0.32304241  0.68145496  0.47196760    -0.03600
C379        C  0.30039053  0.70900515  0.46235121     0.05000
C380        C  0.29282474  0.72191969  0.43845739     0.03100
H381        H  0.33499103  0.66478477  0.49036221     0.08200
H382        H  0.27553400  0.74306915  0.42459661     0.07000
N383        N  0.10844369  0.88450462  0.04420140    -0.28000
N384        N  0.10446304  0.87616671  0.06168421    -0.35200
C385        C  0.08074379  0.89715012  0.05600761     0.01000
C386        C  0.06976263  0.92032645  0.03435506     0.07000
C387        C  0.08787333  0.91177988  0.02740591    -0.06100
H388        H  0.07297073  0.89655690  0.06752626     0.07700
H389        H  0.08596230  0.92412130  0.01113544     0.08900
Cu390      Cu  0.13358219  0.83995656  0.09466351     0.44200
Cu391      Cu  0.14058839  0.85721875  0.04314449     0.42000
Cu392      Cu  0.19201752  0.79062918  0.09871883     0.43900
N393        N  0.16935445  0.80811037  0.12868759    -0.34700
N394        N  0.19085352  0.78964982  0.13004640    -0.29000
C395        C  0.21163710  0.77292247  0.15487700    -0.05100
C396        C  0.20294330  0.78156261  0.16996627     0.07100
C397        C  0.17601739  0.80390403  0.15274191     0.00900
H398        H  0.23207147  0.75651146  0.16170585     0.08600
H399        H  0.16259536  0.81665425  0.15748411     0.07600
N400        N  0.19023051  0.79734030  0.06593108    -0.36200
N401        N  0.17203097  0.82175845  0.04583085    -0.28400
C402        C  0.17732994  0.81895268  0.02837456    -0.03600
C403        C  0.19994020  0.79136005  0.03796058     0.05000
C404        C  0.20746388  0.77839304  0.06182627     0.03100
H405        H  0.16541215  0.83566281  0.01000283     0.08200
H406        H  0.22470603  0.75719083  0.07565576     0.07000
O407        O  0.21172966  0.78451260  0.21139653    -0.73000
O408        O  0.25782558  0.75351342  0.28969642    -0.74000
O409        O  0.26803123  0.80889859  0.26564705    -0.62600
O410        O  0.20225672  0.72900448  0.23646905    -0.71000
O411        O  0.23220783  0.69130071  0.23457791    -0.70600
O412        O  0.29798456  0.77119636  0.26375818    -0.61800
O413        O  0.28850110  0.71567516  0.28882940    -0.74300
O414        O  0.24240576  0.74667980  0.21052647    -0.73100
Cu415      Cu  0.23388300  0.77036971  0.25079004     1.04600
Cu416      Cu  0.26635564  0.72982703  0.24943651     1.04300
C417        C  0.21974041  0.77040706  0.19861722     0.93200
C418        C  0.28047715  0.72976946  0.30160210     0.92300
C419        C  0.29343336  0.80251125  0.26954746     0.84500
C420        C  0.20680544  0.69769154  0.23067629     0.90700
N421        N  0.14173446  0.63486337  0.20693825    -0.27400
N422        N  0.14430234  0.62889748  0.18829801    -0.35200
C423        C  0.16886002  0.64907479  0.19481853     0.01000
C424        C  0.18196717  0.66918692  0.21834132     0.07000
C425        C  0.16412851  0.65982312  0.22543107    -0.06100
H426        H  0.17548704  0.65053550  0.18245008     0.07700
H427        H  0.16702714  0.67051537  0.24258717     0.08900
Cu428      Cu  0.11217021  0.59751923  0.15279889     0.44200
Cu429      Cu  0.10801760  0.60858709  0.20635548     0.42000
Cu430      Cu  0.04998278  0.55165110  0.14606400     0.43900
N431        N  0.07541228  0.56748985  0.11802173    -0.34700
N432        N  0.05287579  0.55027117  0.11591182    -0.29000
C433        C  0.03290387  0.53259927  0.09148046    -0.05100
C434        C  0.04321739  0.53923763  0.07743063     0.07100
C435        C  0.07015933  0.56157295  0.09474641     0.00900
H436        H  0.01228777  0.51629497  0.08442800     0.08600
H437        H  0.08499973  0.57240739  0.09087723     0.07600
N438        N  0.05233597  0.55565626  0.17917013    -0.36200
N439        N  0.07352658  0.57621970  0.20129269    -0.28400
C440        C  0.06923011  0.57157355  0.21926851    -0.03600
C441        C  0.04401428  0.54683657  0.20790670     0.05000
C442        C  0.03395160  0.53747620  0.18237342     0.03100
H443        H  0.08374393  0.58509690  0.23921283     0.08200
H444        H  0.01497027  0.51851142  0.16719444     0.07000
N445        N  0.35846961  0.86538236  0.29324972    -0.27400
N446        N  0.35593886  0.87131377  0.31191637    -0.35200
C447        C  0.33139897  0.85111591  0.30541340     0.01000
C448        C  0.31826657  0.83102441  0.28187561     0.07000
C449        C  0.33607077  0.84042470  0.27475750    -0.06100
H450        H  0.32480214  0.84962584  0.31780332     0.07700
H451        H  0.33314711  0.82975685  0.25758362     0.08900
Cu452      Cu  0.38810745  0.90266850  0.34742904     0.44200
Cu453      Cu  0.39215900  0.89168884  0.29381097     0.42000
Cu454      Cu  0.45025033  0.94859350  0.35413352     0.43900
N455        N  0.42487441  0.93269537  0.38221212    -0.34700
N456        N  0.44739374  0.94993995  0.38431047    -0.29000
C457        C  0.46736103  0.96762265  0.40873866    -0.05100
C458        C  0.45706120  0.96096797  0.42279829     0.07100
C459        C  0.43013464  0.93860658  0.40549188     0.00900
H460        H  0.48795939  0.98395421  0.41577918     0.08600
H461        H  0.41530361  0.92775917  0.40936734     0.07600
N462        N  0.44786945  0.94458544  0.32101033    -0.36200
N463        N  0.42666204  0.92403823  0.29888144    -0.28400
C464        C  0.43095298  0.92867929  0.28090161    -0.03600
C465        C  0.45618144  0.95339627  0.29226596     0.05000
C466        C  0.46625886  0.96274919  0.31780599     0.03100
H467        H  0.41642582  0.91516734  0.26095213     0.08200
H468        H  0.48525366  0.98169910  0.33298926     0.07000
C469        C  0.45433323  0.45681934  0.21469514    -0.17900
C470        C  0.46663816  0.46975196  0.20295907    -0.20100
C471        C  0.49259307  0.49466463  0.21751894     0.20600
C472        C  0.00629555  0.50664654  0.24415722    -0.03000
C473        C  0.49388244  0.99359214  0.25600209    -0.06000
C474        C  0.46779940  0.46856527  0.24119571     0.20900
C475        C  0.00759519  0.00556278  0.28264571     0.19000
C476        C  0.03355519  0.03046778  0.29720859    -0.17500
C477        C  0.04586082  0.04339874  0.28547333    -0.19800
C478        C  0.03238907  0.03166017  0.25896999     0.20500
C479        C  0.04455169  0.54458422  0.24705078    -0.32800
C480        C  0.03102520  0.53290537  0.22043328     0.01200
C481        C  0.00501178  0.50782569  0.20586505    -0.24100
C482        C  0.45562570  0.95565740  0.25311001    -0.28700
C483        C  0.46916420  0.96732481  0.27973363     0.06900
C484        C  0.49518184  0.99239742  0.29430252    -0.27300
H485        H  0.43428574  0.43760481  0.20304316     0.11600
H486        H  0.45582823  0.46026769  0.18246491     0.12700
H487        H  0.04437056  0.03994497  0.31770572     0.11800
H488        H  0.06591444  0.06260494  0.29712878     0.11100
H489        H  0.06456289  0.56376803  0.25865773     0.16400
H490        H  0.49419800  0.49842796  0.18538727     0.12400
H491        H  0.43561045  0.93647893  0.24150236     0.15200
H492        H  0.00600362  0.00178905  0.31478385     0.15000
C493        C  0.27458616  0.68771149  0.02142162    -0.17900
C494        C  0.26003700  0.69900148  0.03154564    -0.20100
C495        C  0.24415199  0.73302547  0.02362241     0.20600
C496        C  0.24279199  0.75586319  0.00524336    -0.03000
C497        C  0.25748803  0.74446988  0.49502999    -0.06000
C498        C  0.27348879  0.71024810  0.00318592     0.20900
C499        C  0.25613629  0.76731261  0.47665731     0.19000
C500        C  0.24025133  0.80133656  0.46873413    -0.17500
C501        C  0.22570462  0.81262789  0.47885996    -0.19800
C502        C  0.22680324  0.79009211  0.49709650     0.20500
C503        C  0.21240342  0.80130111  0.00746624    -0.32800
C504        C  0.21397491  0.77886911  0.02607422     0.01200
C505        C  0.22975165  0.74464322  0.03387052    -0.24100
C506        C  0.28789229  0.69904117  0.49281893    -0.28700
C507        C  0.28633591  0.72148284  0.47422287     0.06900
C508        C  0.27055016  0.75570297  0.46641948    -0.27300
H509        H  0.28670069  0.66133109  0.02785862     0.11600
H510        H  0.26126749  0.68112134  0.04563681     0.12700
H511        H  0.23902459  0.81921880  0.45464599     0.11800
H512        H  0.21359566  0.83901158  0.47242728     0.11100
H513        H  0.20056351  0.82781157  0.50144555     0.16400
H514        H  0.23079161  0.72682588  0.04787052     0.12400
H515        H  0.29975940  0.67254683  0.99885895     0.15200
H516        H  0.26951923  0.77352335  0.45242542     0.15000
O517        O  0.49368964  0.49989426  0.96129633    -0.73000
O518        O  0.03679783  0.53787386  0.53719168    -0.74000
O519        O  0.04900525  0.97983524  0.51553100    -0.62600
O520        O  0.48067368  0.55776143  0.98187736    -0.71000
O521        O  0.45125873  0.52040786  0.98470023    -0.70600
O522        O  0.01958694  0.94248059  0.51834951    -0.61800
O523        O  0.00657336  0.00033594  0.53892586    -0.74300
O524        O  0.46346439  0.96236092  0.96303070    -0.73100
Cu525      Cu  0.01609234  0.52021440  0.99893477     1.04600
Cu526      Cu  0.48416835  0.98002288  0.50128872     1.04300
C527        C  0.47198212  0.97505064  0.95029776     0.93200
C528        C  0.02828534  0.52517464  0.54992623     0.92300
C529        C  0.04493379  0.94885437  0.52212757     0.84500
C530        C  0.45533421  0.55139373  0.97811237     0.90700
N531        N  0.39188279  0.61579560  0.95611953    -0.27400
N532        N  0.39576582  0.62404567  0.93856163    -0.35200
C533        C  0.41945401  0.60303975  0.94420188     0.01000
C534        C  0.43051727  0.57993408  0.96591002     0.07000
C535        C  0.41248793  0.58854995  0.97293127    -0.06100
H536        H  0.42714426  0.60356272  0.93261879     0.07700
H537        H  0.41447207  0.57626881  0.98925522     0.08900
Cu538      Cu  0.36655050  0.66015778  0.90553392     0.44200
Cu539      Cu  0.35978800  0.64315142  0.95721411     0.42000
Cu540      Cu  0.30818335  0.70959242  0.90150927     0.43900
N541        N  0.33077636  0.69198383  0.87150141    -0.34700
N542        N  0.30929899  0.71048811  0.87014890    -0.29000
C543        C  0.28854124  0.72723981  0.84532520    -0.05100
C544        C  0.29723486  0.71857477  0.83023798     0.07100
C545        C  0.32412713  0.69618557  0.84745303     0.00900
H546        H  0.26813614  0.74370470  0.83850560     0.08600
H547        H  0.33754752  0.68341790  0.84271488     0.07600
N548        N  0.31006865  0.70297662  0.93436088    -0.36200
N549        N  0.32832441  0.67861963  0.95450063    -0.28400
C550        C  0.32304555  0.68145792  0.97196956    -0.03600
C551        C  0.30039126  0.70900566  0.96235160     0.05000
C552        C  0.29282268  0.72191710  0.93845593     0.03100
H553        H  0.33499665  0.66479033  0.99036575     0.08200
H554        H  0.27552993  0.74306402  0.92459376     0.07000
N555        N  0.10844582  0.88450623  0.54420263    -0.28000
N556        N  0.10446399  0.87616700  0.56168447    -0.35200
C557        C  0.08074406  0.89714961  0.55600732     0.01000
C558        C  0.06976373  0.92032686  0.53435543     0.07000
C559        C  0.08787554  0.91178158  0.52740719    -0.06100
H560        H  0.07297001  0.89655520  0.56752512     0.07700
H561        H  0.08596532  0.92412384  0.51113739     0.08900
Cu562      Cu  0.13358204  0.83995596  0.59466325     0.44200
Cu563      Cu  0.14059147  0.85722143  0.54314651     0.42000
Cu564      Cu  0.19201410  0.79062422  0.59871670     0.43900
N565        N  0.16935337  0.80810868  0.62868687    -0.34700
N566        N  0.19085120  0.78964630  0.63004498    -0.29000
C567        C  0.21163492  0.77291910  0.65487565    -0.05100
C568        C  0.20294246  0.78156125  0.66996567     0.07100
C569        C  0.17601715  0.80390365  0.65274166     0.00900
H570        H  0.23206857  0.75650701  0.66170406     0.08600
H571        H  0.16259632  0.81665552  0.65748445     0.07600
N572        N  0.19022913  0.79733818  0.56593020    -0.36200
N573        N  0.17203265  0.82175970  0.54583201    -0.28400
C574        C  0.17733301  0.81895567  0.52837658    -0.03600
C575        C  0.19994083  0.79136058  0.53796095     0.05000
C576        C  0.20746171  0.77839040  0.56182478     0.03100
H577        H  0.16541766  0.83566844  0.51000643     0.08200
H578        H  0.22470169  0.75718555  0.57565272     0.07000
O579        O  0.21172978  0.78451256  0.71139642    -0.73000
O580        O  0.25782548  0.75351286  0.78969628    -0.74000
O581        O  0.26803127  0.80889829  0.76564716    -0.62600
O582        O  0.20225662  0.72900462  0.73646887    -0.71000
O583        O  0.23220768  0.69130055  0.73457788    -0.70600
O584        O  0.29798448  0.77119642  0.76375796    -0.61800
O585        O  0.28850125  0.71567506  0.78882929    -0.74300
O586        O  0.24240553  0.74667936  0.71052625    -0.73100
Cu587      Cu  0.23388308  0.77036947  0.75078998     1.04600
Cu588      Cu  0.26635558  0.72982692  0.74943638     1.04300
C589        C  0.21974016  0.77040656  0.69861694     0.93200
C590        C  0.28047704  0.72976890  0.80160189     0.92300
C591        C  0.29343330  0.80251122  0.76954739     0.84500
C592        C  0.20680524  0.69769161  0.73067617     0.90700
N593        N  0.14173300  0.63486536  0.70693748    -0.27400
N594        N  0.14430134  0.62889860  0.68829761    -0.35200
C595        C  0.16885960  0.64907498  0.69481850     0.01000
C596        C  0.18196674  0.66918734  0.71834115     0.07000
C597        C  0.16412742  0.65982473  0.72543046    -0.06100
H598        H  0.17548713  0.65053483  0.68245035     0.07700
H599        H  0.16702590  0.67051747  0.74258633     0.08900
Cu600      Cu  0.11216948  0.59752002  0.65279862     0.44200
Cu601      Cu  0.10801554  0.60859009  0.70635439     0.42000
Cu602      Cu  0.04998497  0.55164803  0.64606541     0.43900
N603        N  0.07541215  0.56748981  0.61802174    -0.34700
N604        N  0.05287669  0.55026950  0.61591244    -0.29000
C605        C  0.03290490  0.53259736  0.59148115    -0.05100
C606        C  0.04321751  0.53923730  0.57743076     0.07100
C607        C  0.07015874  0.56157372  0.59474612     0.00900
H608        H  0.01228959  0.51629191  0.58442916     0.08600
H609        H  0.08499831  0.57240952  0.59087646     0.07600
N610        N  0.05233742  0.55565455  0.67917112    -0.36200
N611        N  0.07352599  0.57622081  0.70129248    -0.28400
C612        C  0.06922902  0.57157546  0.71926804    -0.03600
C613        C  0.04401510  0.54683601  0.70790736     0.05000
C614        C  0.03395407  0.53747335  0.68237505     0.03100
H615        H  0.08374072  0.58510169  0.73921117     0.08200
H616        H  0.01497495  0.51850545  0.66719740     0.07000
N617        N  0.35846836  0.86538412  0.79324899    -0.27400
N618        N  0.35593795  0.87131483  0.81191590    -0.35200
C619        C  0.33139861  0.85111612  0.80541329     0.01000
C620        C  0.31826630  0.83102469  0.78187548     0.07000
C621        C  0.33606990  0.84042604  0.77475695    -0.06100
H622        H  0.32480215  0.84962543  0.81780344     0.07700
H623        H  0.33314611  0.82975858  0.75758291     0.08900
Cu624      Cu  0.38810679  0.90266932  0.84742861     0.44200
Cu625      Cu  0.39215737  0.89169148  0.79381007     0.42000
Cu626      Cu  0.45025234  0.94859071  0.85413486     0.43900
N627        N  0.42487438  0.93269526  0.88221210    -0.34700
N628        N  0.44739465  0.94993835  0.88431103    -0.29000
C629        C  0.46736202  0.96762096  0.90873924    -0.05100
C630        C  0.45706133  0.96096774  0.92279833     0.07100
C631        C  0.43013416  0.93860729  0.90549156     0.00900
H632        H  0.48796101  0.98395153  0.91578012     0.08600
H633        H  0.41530234  0.92776112  0.90936659     0.07600
N634        N  0.44787086  0.94458380  0.82101132    -0.36200
N635        N  0.42666174  0.92403902  0.79888141    -0.28400
C636        C  0.43095238  0.92868050  0.78090141    -0.03600
C637        C  0.45618257  0.95339522  0.79226681     0.05000
C638        C  0.46626131  0.96274636  0.81780762     0.03100
H639        H  0.41642355  0.91517100  0.76095106     0.08200
H640        H  0.48525800  0.98169358  0.83299203     0.07000
C641        C  0.45431729  0.45684045  0.71468665    -0.17900
C642        C  0.46662185  0.46977354  0.70295037    -0.20100
C643        C  0.49258523  0.49467477  0.71751483     0.20600
C644        C  0.00629769  0.50664426  0.74415863    -0.03000
C645        C  0.49388474  0.99358965  0.75600362    -0.06000
C646        C  0.46779226  0.46857459  0.74119205     0.20900
C647        C  0.00758960  0.00557004  0.78264285     0.19000
C648        C  0.03354314  0.03048378  0.79720222    -0.17500
C649        C  0.04584898  0.04341444  0.78546711    -0.19800
C650        C  0.03238390  0.03166697  0.75896742     0.20500
C651        C  0.04456285  0.54456982  0.74705711    -0.32800
C652        C  0.03102635  0.53290447  0.72043415     0.01200
C653        C  0.00500342  0.50783762  0.70586077    -0.24100
C654        C  0.45563511  0.95564524  0.75311538    -0.28700
C655        C  0.46916568  0.96732334  0.77973469     0.06900
C656        C  0.49517580  0.99240603  0.79429947    -0.27300
H657        H  0.43426318  0.43763491  0.70303108     0.11600
H658        H  0.45580499  0.46029854  0.68245238     0.12700
H659        H  0.04435324  0.03996800  0.81769647     0.11800
H660        H  0.06589754  0.06262758  0.79711981     0.11100
H661        H  0.06458214  0.56374277  0.75866843     0.16400
H662        H  0.49418218  0.49844895  0.68537882     0.12400
H663        H  0.43562627  0.93645822  0.74151119     0.15200
H664        H  0.00599204  0.00180445  0.81477772     0.15000
C665        C  0.27457304  0.68770386  0.52141160    -0.17900
C666        C  0.26002436  0.69899440  0.53153595    -0.20100
C667        C  0.24414598  0.73302224  0.52361777     0.20600
C668        C  0.24279215  0.75586337  0.50524345    -0.03000
C669        C  0.25748832  0.74447018  0.99503019    -0.06000
C670        C  0.27348188  0.71024391  0.50318069     0.20900
C671        C  0.25613038  0.76730946  0.97665276     0.19000
C672        C  0.24023877  0.80132953  0.96872452    -0.17500
C673        C  0.22569160  0.81262038  0.97885004    -0.19800
C674        C  0.22679647  0.79008802  0.99709137     0.20500
C675        C  0.21241042  0.80130549  0.50747149    -0.32800
C676        C  0.21397561  0.77886991  0.52607463     0.01200
C677        C  0.22974602  0.74464041  0.53386612    -0.24100
C678        C  0.28789933  0.69904557  0.99282423    -0.28700
C679        C  0.28633675  0.72148366  0.97422338     0.06900
C680        C  0.27054470  0.75570021  0.96641523    -0.27300
H681        H  0.28668234  0.66132046  0.52784462     0.11600
H682        H  0.26125000  0.68111160  0.54562342     0.12700
H683        H  0.23900715  0.81920914  0.95463261     0.11800
H684        H  0.21357745  0.83900104  0.97241343     0.11100
H685        H  0.20055150  0.82780427  0.00143638     0.16400
H686        H  0.23078107  0.72682049  0.54786245     0.12400
H687        H  0.29974742  0.67253966  0.49884979     0.15200
H688        H  0.26950890  0.77351803  0.95241749     0.15000
O689        O  0.99368927  0.99989512  0.46129628    -0.73000
O690        O  0.53679808  0.03787400  0.03719147    -0.74000
O691        O  0.54900532  0.47983420  0.01553122    -0.62600
O692        O  0.98067286  0.05776131  0.48187762    -0.71000
O693        O  0.95125837  0.02040682  0.48470050    -0.70600
O694        O  0.51958657  0.44248037  0.01834969    -0.61800
O695        O  0.50657333  0.50033671  0.03892568    -0.74300
O696        O  0.96346432  0.46236128  0.46303063    -0.73100
Cu697      Cu  0.51609238  0.02021450  0.49893480     1.04600
Cu698      Cu  0.98416810  0.48002326  0.00128879     1.04300
C699        C  0.97198196  0.47505132  0.45029769     0.93200
C700        C  0.52828541  0.02517517  0.04992598     0.92300
C701        C  0.54493352  0.44885358  0.02212780     0.84500
C702        C  0.95533343  0.05139293  0.47811257     0.90700
N703        N  0.89188002  0.11579268  0.45611816    -0.27400
N704        N  0.89576485  0.12404462  0.43856168    -0.35200
C705        C  0.91945388  0.10303962  0.44420266     0.01000
C706        C  0.93051593  0.07993266  0.46590986     0.07000
C707        C  0.91248496  0.08854680  0.47292977    -0.06100
H708        H  0.92714564  0.10356420  0.43262078     0.07700
H709        H  0.91446803  0.07626449  0.48925286     0.08900
Cu710      Cu  0.86655101  0.16015822  0.40553482     0.44200
Cu711      Cu  0.85978398  0.14314744  0.45721168     0.42000
Cu712      Cu  0.80818845  0.20959892  0.40151266     0.43900
N713        N  0.83077814  0.19198572  0.37150287    -0.34700
N714        N  0.80930248  0.21049260  0.37015128    -0.29000
C715        C  0.78854462  0.22724414  0.34532751    -0.05100
C716        C  0.79723644  0.21857624  0.33023929     0.07100
C717        C  0.82412774  0.19618556  0.34745386     0.00900
H718        H  0.76814059  0.24371069  0.33850849     0.08600
H719        H  0.83754652  0.18341543  0.34271489     0.07600
N720        N  0.81007147  0.20297997  0.43436288    -0.36200
N721        N  0.82832296  0.17861829  0.45449981    -0.28400
C722        C  0.82304255  0.18145455  0.47196776    -0.03600
C723        C  0.80039191  0.20900595  0.46235226     0.05000
C724        C  0.79282704  0.22192165  0.43845905     0.03100
H725        H  0.83499028  0.16478323  0.49036179     0.08200
H726        H  0.77553737  0.24307230  0.42459904     0.07000
N727        N  0.60844428  0.38450396  0.04420206    -0.28000
N728        N  0.60446332  0.37616578  0.06168462    -0.35200
C729        C  0.58074397  0.39714910  0.05600792     0.01000
C730        C  0.56976311  0.42032566  0.03435554     0.07000
C731        C  0.58787401  0.41177929  0.02740660    -0.06100
H732        H  0.57297069  0.39655565  0.06752632     0.07700
H733        H  0.58596329  0.42412096  0.01113634     0.08900
Cu734      Cu  0.63358205  0.33995529  0.09466375     0.44200
Cu735      Cu  0.64058940  0.35721861  0.04314552     0.42000
Cu736      Cu  0.69201784  0.29062822  0.09871924     0.43900
N737        N  0.66935437  0.30810893  0.12868776    -0.34700
N738        N  0.69085352  0.28964852  0.13004661    -0.29000
C739        C  0.71163719  0.27292124  0.15487724    -0.05100
C740        C  0.70294340  0.28156138  0.16996654     0.07100
C741        C  0.67601735  0.30390259  0.15274210     0.00900
H742        H  0.73207164  0.25651043  0.16170611     0.08600
H743        H  0.66259533  0.31665275  0.15748432     0.07600
N744        N  0.69023141  0.29734018  0.06593187    -0.36200
N745        N  0.67203218  0.32175874  0.04583190    -0.28400
C746        C  0.67733145  0.31895344  0.02837579    -0.03600
C747        C  0.69994157  0.29136068  0.03796165     0.05000
C748        C  0.70746486  0.27839317  0.06182707     0.03100
H749        H  0.66541382  0.33566385  0.01000422     0.08200
H750        H  0.72470678  0.25719059  0.07565639     0.07000
O751        O  0.71173005  0.28451183  0.21139696    -0.73000
O752        O  0.75782622  0.25351306  0.28969704    -0.74000
O753        O  0.76803165  0.30889815  0.26564747    -0.62600
O754        O  0.70225736  0.22900383  0.23646973    -0.71000
O755        O  0.73220845  0.19130009  0.23457857    -0.70600
O756        O  0.79798503  0.27119599  0.26375862    -0.61800
O757        O  0.78850190  0.21567496  0.28883013    -0.74300
O758        O  0.74240618  0.24667907  0.21052695    -0.73100
Cu759      Cu  0.73388356  0.27036910  0.25079059     1.04600
Cu760      Cu  0.76635623  0.22982654  0.24943710     1.04300
C761        C  0.71974071  0.27040617  0.19861762     0.93200
C762        C  0.78047794  0.22976929  0.30160281     0.92300
C763        C  0.79343377  0.30251090  0.26954783     0.84500
C764        C  0.70680603  0.19769093  0.23067691     0.90700
N765        N  0.64173407  0.13486394  0.20693796    -0.27400
N766        N  0.64430267  0.12889734  0.18829822    -0.35200
C767        C  0.66886085  0.14907405  0.19481920     0.01000
C768        C  0.68196761  0.16918650  0.21834177     0.07000
C769        C  0.66412817  0.15982353  0.22543086    -0.06100
H770        H  0.67548849  0.15053416  0.18245118     0.07700
H771        H  0.66702635  0.17051632  0.24258670     0.08900
Cu772      Cu  0.61217086  0.09751905  0.15279906     0.44200
Cu773      Cu  0.60801641  0.10858860  0.20635462     0.42000
Cu774      Cu  0.54998416  0.05164930  0.14606459     0.43900
N775        N  0.57541279  0.06748976  0.11802180    -0.34700
N776        N  0.55287665  0.05027046  0.11591209    -0.29000
C777        C  0.53290452  0.03259888  0.09148058    -0.05100
C778        C  0.54321755  0.03923808  0.07743045     0.07100
C779        C  0.57015943  0.06157351  0.09474622     0.00900
H780        H  0.51228870  0.01629417  0.08442826     0.08600
H781        H  0.58499958  0.07240839  0.09087688     0.07600
N782        N  0.55233624  0.05565559  0.17917004    -0.36200
N783        N  0.57352560  0.07622071  0.20129188    -0.28400
C784        C  0.56922838  0.07157551  0.21926729    -0.03600
C785        C  0.54401350  0.04683730  0.20790601     0.05000
C786        C  0.53395209  0.03747524  0.18237347     0.03100
H787        H  0.58374068  0.08510086  0.23921076     0.08200
H788        H  0.51497226  0.01850842  0.16719537     0.07000
N789        N  0.85846946  0.36538282  0.29324964    -0.27400
N790        N  0.85593906  0.37131371  0.31191655    -0.35200
C791        C  0.83139944  0.35111546  0.30541378     0.01000
C792        C  0.81826687  0.33102419  0.28187586     0.07000
C793        C  0.83607068  0.34042507  0.27475745    -0.06100
H794        H  0.82480290  0.34962498  0.31780390     0.07700
H795        H  0.83314683  0.32975748  0.25758341     0.08900
Cu796      Cu  0.88810780  0.40266836  0.34742925     0.44200
Cu797      Cu  0.89215874  0.39168976  0.29381093     0.42000
Cu798      Cu  0.95025186  0.44859171  0.35413453     0.43900
N799        N  0.92487469  0.43269542  0.38221227    -0.34700
N800        N  0.94739446  0.44993934  0.38431088    -0.29000
C801        C  0.96736146  0.46762251  0.40873888    -0.05100
C802        C  0.95706110  0.46096870  0.42279818     0.07100
C803        C  0.93013446  0.43860747  0.40549171     0.00900
H804        H  0.98796008  0.48395371  0.41577953     0.08600
H805        H  0.91530304  0.42776058  0.40936701     0.07600
N806        N  0.94787020  0.44458479  0.32101093    -0.36200
N807        N  0.92666185  0.42403891  0.29888148    -0.28400
C808        C  0.93095209  0.42868090  0.28090127    -0.03600
C809        C  0.95618121  0.45339705  0.29226603     0.05000
C810        C  0.96625969  0.46274849  0.31780667     0.03100
H811        H  0.91642368  0.41517075  0.26095112     0.08200
H812        H  0.98525574  0.48169674  0.33299073     0.07000
C813        C  0.95431691  0.95684145  0.21468645    -0.17900
C814        C  0.96662150  0.96977443  0.20295016    -0.20100
C815        C  0.99258440  0.99467636  0.21751437     0.20600
C816        C  0.50629526  0.00664645  0.24415681    -0.03000
C817        C  0.99388237  0.49359269  0.25600229    -0.06000
C818        C  0.96779136  0.96857626  0.24119154     0.20900
C819        C  0.50758688  0.50557370  0.28264096     0.19000
C820        C  0.53353898  0.53048938  0.29719958    -0.17500
C821        C  0.54584492  0.54341995  0.28546451    -0.19800
C822        C  0.53238138  0.53167043  0.25896565     0.20500
C823        C  0.54455984  0.04457281  0.24705499    -0.32800
C824        C  0.53102438  0.03290614  0.22043258     0.01200
C825        C  0.50500213  0.00783832  0.20585954    -0.24100
C826        C  0.95563409  0.45564653  0.25311480    -0.28700
C827        C  0.96916373  0.46732587  0.27973358     0.06900
C828        C  0.99517244  0.49241049  0.29429761    -0.27300
H829        H  0.93426314  0.93763538  0.20303103     0.11600
H830        H  0.95580517  0.96029884  0.18245253     0.12700
H831        H  0.54434780  0.53997517  0.31769310     0.11800
H832        H  0.56589238  0.56263456  0.29711663     0.11100
H833        H  0.56457850  0.06374670  0.25866599     0.16400
H834        H  0.99418221  0.99844937  0.18537882     0.12400
H835        H  0.93562621  0.43645810  0.24151114     0.15200
H836        H  0.50598798  0.50180987  0.31477510     0.15000
C837        C  0.77458492  0.18771070  0.02142056    -0.17900
C838        C  0.76003631  0.19900102  0.03154501    -0.20100
C839        C  0.74415207  0.23302545  0.02362240     0.20600
C840        C  0.74279226  0.25586332  0.00524352    -0.03000
C841        C  0.75748837  0.24447005  0.49503027    -0.06000
C842        C  0.77348776  0.21024750  0.00318505     0.20900
C843        C  0.75613954  0.26731444  0.47665983     0.19000
C844        C  0.74025689  0.30133972  0.46873845    -0.17500
C845        C  0.72570952  0.31263075  0.47886374    -0.19800
C846        C  0.72680518  0.29009331  0.49709800     0.20500
C847        C  0.71240499  0.30130200  0.00746744    -0.32800
C848        C  0.71397613  0.27886975  0.02607514     0.01200
C849        C  0.72975224  0.24464349  0.03387091    -0.24100
C850        C  0.78789087  0.19904025  0.49281787    -0.28700
C851        C  0.78633725  0.22148352  0.47422392     0.06900
C852        C  0.77055389  0.25570501  0.46642238    -0.27300
H853        H  0.78669884  0.16132999  0.02785706     0.11600
H854        H  0.76126662  0.18112075  0.04563605     0.12700
H855        H  0.73903245  0.31922333  0.45465204     0.11800
H856        H  0.71360239  0.33901553  0.47243247     0.11100
H857        H  0.70056674  0.32781345  0.50144808     0.16400
H858        H  0.73079201  0.22682602  0.04787074     0.12400
H859        H  0.79975743  0.17254581  0.99885727     0.15200
H860        H  0.76952515  0.27352656  0.45242996     0.15000
O861        O  0.99368919  0.99989486  0.96129599    -0.73000
O862        O  0.53679803  0.03787287  0.53719184    -0.74000
O863        O  0.54900518  0.47983594  0.51553054    -0.62600
O864        O  0.98067332  0.05776217  0.98187707    -0.71000
O865        O  0.95125823  0.02040863  0.98469981    -0.70600
O866        O  0.51958700  0.44248131  0.51834922    -0.61800
O867        O  0.50657330  0.50033663  0.53892544    -0.74300
O868        O  0.96346436  0.46236015  0.96303099    -0.73100
Cu869      Cu  0.51609235  0.02021512  0.99893446     1.04600
Cu870      Cu  0.98416813  0.48002395  0.50128854     1.04300
C871        C  0.97198208  0.47504993  0.95029805     0.93200
C872        C  0.52828553  0.02517369  0.54992640     0.92300
C873        C  0.54493382  0.44885512  0.52212723     0.84500
C874        C  0.95533379  0.05139452  0.97811199     0.90700
N875        N  0.89188218  0.11579637  0.95611886    -0.27400
N876        N  0.89576568  0.12404681  0.93856130    -0.35200
C877        C  0.91945399  0.10304094  0.94420171     0.01000
C878        C  0.93051686  0.07993491  0.96590959     0.07000
C879        C  0.91248720  0.08855060  0.97293055    -0.06100
H880        H  0.92714457  0.10356417  0.93261891     0.07700
H881        H  0.91447101  0.07626923  0.98925427     0.08900
Cu882      Cu  0.86655070  0.16015929  0.90553371     0.44200
Cu883      Cu  0.85978692  0.14315174  0.95721308     0.42000
Cu884      Cu  0.80818303  0.20959338  0.90150885     0.43900
N885        N  0.83077640  0.19198533  0.87150117    -0.34700
N886        N  0.80929898  0.21048953  0.87014864    -0.29000
C887        C  0.78854111  0.22724109  0.84532489    -0.05100
C888        C  0.79723462  0.21857598  0.83023760     0.07100
C889        C  0.82412702  0.19618693  0.84745272     0.00900
H890        H  0.76813589  0.24370583  0.83850522     0.08600
H891        H  0.83754738  0.18341922  0.84271454     0.07600
N892        N  0.81006767  0.20297672  0.93436003    -0.36200
N893        N  0.82832315  0.17861937  0.95449956    -0.28400
C894        C  0.82304405  0.18145722  0.97196834    -0.03600
C895        C  0.80038990  0.20900509  0.96235051     0.05000
C896        C  0.79282167  0.22191695  0.93845510     0.03100
H897        H  0.83499502  0.16478938  0.99036440     0.08200
H898        H  0.77552911  0.24306430  0.92459309     0.07000
N899        N  0.60844652  0.38450768  0.54420290    -0.28000
N900        N  0.60446413  0.37616792  0.56168430    -0.35200
C901        C  0.58074390  0.39715022  0.55600689     0.01000
C902        C  0.56976394  0.42032780  0.53435525     0.07000
C903        C  0.58787634  0.41178312  0.52740752    -0.06100
H904        H  0.57296932  0.39655525  0.56752422     0.07700
H905        H  0.58596649  0.42412581  0.51113797     0.08900
Cu906      Cu  0.63358155  0.33995612  0.59466262     0.44200
Cu907      Cu  0.64059247  0.35722295  0.54314711     0.42000
Cu908      Cu  0.69201226  0.29062243  0.59871529     0.43900
N909        N  0.66935256  0.30810843  0.62868609    -0.34700
N910        N  0.69084990  0.28964527  0.63004392    -0.29000
C911        C  0.71163366  0.27291815  0.65487463    -0.05100
C912        C  0.70294166  0.28156114  0.66996491     0.07100
C913        C  0.67601665  0.30390388  0.65274102     0.00900
H914        H  0.73206695  0.25650557  0.66170286     0.08600
H915        H  0.66259614  0.31665639  0.65748403     0.07600
N916        N  0.69022744  0.29733691  0.56592893    -0.36200
N917        N  0.67203223  0.32175979  0.54583159    -0.28400
C918        C  0.67733271  0.31895603  0.52837622    -0.03600
C919        C  0.69993925  0.29135962  0.53795975     0.05000
C920        C  0.70745927  0.27838842  0.56182300     0.03100
H921        H  0.66541846  0.33566996  0.51000683     0.08200
H922        H  0.72469835  0.25718260  0.57565033     0.07000
O923        O  0.71172908  0.28451288  0.71139569    -0.73000
O924        O  0.75782489  0.25351375  0.78969572    -0.74000
O925        O  0.76803057  0.30889903  0.76564638    -0.62600
O926        O  0.70225609  0.22900502  0.73646840    -0.71000
O927        O  0.73220724  0.19130099  0.73457748    -0.70600
O928        O  0.79798380  0.27119699  0.76375729    -0.61800
O929        O  0.78850069  0.21567593  0.78882878    -0.74300
O930        O  0.74240485  0.24667953  0.71052563    -0.73100
Cu931      Cu  0.73388241  0.27037011  0.75078932     1.04600
Cu932      Cu  0.76635499  0.22982742  0.74943583     1.04300
C933        C  0.71973946  0.27040671  0.69861625     0.93200
C934        C  0.78047654  0.22976987  0.80160139     0.92300
C935        C  0.79343267  0.30251182  0.76954672     0.84500
C936        C  0.70680481  0.19769198  0.73067580     0.90700
N937        N  0.64173312  0.13486507  0.70693752    -0.27400
N938        N  0.64430114  0.12889873  0.68829741    -0.35200
C939        C  0.66885916  0.14907541  0.69481809     0.01000
C940        C  0.68196647  0.16918754  0.71834089     0.07000
C941        C  0.66412752  0.15982447  0.72543048    -0.06100
H942        H  0.67548634  0.15053568  0.68244970     0.07700
H943        H  0.66702621  0.17051696  0.74258651     0.08900
Cu944      Cu  0.61216910  0.09752037  0.65279836     0.44200
Cu945      Cu  0.60801591  0.10858938  0.70635459     0.42000
Cu946      Cu  0.54998361  0.05164953  0.64606454     0.43900
N947        N  0.57541189  0.06748976  0.61802156    -0.34700
N948        N  0.55287613  0.05026992  0.61591209    -0.29000
C949        C  0.53290454  0.03259744  0.59148094    -0.05100
C950        C  0.54321756  0.03923664  0.57743080     0.07100
C951        C  0.57015883  0.06157304  0.59474615     0.00900
H952        H  0.51228897  0.01629231  0.58442879     0.08600
H953        H  0.58499861  0.07240839  0.59087661     0.07600
N954        N  0.55233664  0.05565520  0.67917053    -0.36200
N955        N  0.57352614  0.07622019  0.70129244    -0.28400
C956        C  0.56922976  0.07157395  0.71926831    -0.03600
C957        C  0.54401526  0.04683531  0.70790727     0.05000
C958        C  0.53395319  0.03747404  0.68237437     0.03100
H959        H  0.58374275  0.08509850  0.73921219     0.08200
H960        H  0.51497299  0.01850765  0.66719603     0.07000
N961        N  0.85846869  0.36538371  0.79324925    -0.27400
N962        N  0.85593769  0.37131492  0.81191576    -0.35200
C963        C  0.83139789  0.35111673  0.80541269     0.01000
C964        C  0.81826586  0.33102511  0.78187503     0.07000
C965        C  0.83607015  0.34042577  0.77475705    -0.06100
H966        H  0.82480090  0.34962651  0.81780250     0.07700
H967        H  0.83314683  0.32975795  0.75758338     0.08900
Cu968      Cu  0.88810625  0.40266943  0.84742859     0.44200
Cu969      Cu  0.89215859  0.39169002  0.79381110     0.42000
Cu970      Cu  0.95025097  0.44859223  0.85413427     0.43900
N971        N  0.92487381  0.43269539  0.88221207    -0.34700
N972        N  0.94739374  0.44993903  0.88431078    -0.29000
C973        C  0.96736129  0.46762136  0.90873910    -0.05100
C974        C  0.95706108  0.46096737  0.92279850     0.07100
C975        C  0.93013398  0.43860683  0.90549177     0.00900
H976        H  0.98796009  0.48395224  0.91577987     0.08600
H977        H  0.91530247  0.42776018  0.90936700     0.07600
N978        N  0.94787052  0.44458445  0.82101133    -0.36200
N979        N  0.92666263  0.42403802  0.79888213    -0.28400
C980        C  0.93095393  0.42867866  0.78090249    -0.03600
C981        C  0.95618326  0.45339460  0.79226740     0.05000
C982        C  0.96626071  0.46274734  0.81780747     0.03100
H983        H  0.91642656  0.41516728  0.76095294     0.08200
H984        H  0.98525601  0.48169654  0.83299107     0.07000
C985        C  0.95433147  0.95682163  0.71469455    -0.17900
C986        C  0.96663620  0.96975449  0.70295836    -0.20100
C987        C  0.99259256  0.99466524  0.71751904     0.20600
C988        C  0.50629783  0.00664367  0.74415851    -0.03000
C989        C  0.99388494  0.49358983  0.75600395    -0.06000
C990        C  0.96779923  0.96856544  0.74119601     0.20900
C991        C  0.50759722  0.50555960  0.78264680     0.19000
C992        C  0.53355782  0.53046380  0.79720999    -0.17500
C993        C  0.54586343  0.54339476  0.78547472    -0.19800
C994        C  0.53239105  0.53165702  0.75897106     0.20500
C995        C  0.54455481  0.04458022  0.74705254    -0.32800
C996        C  0.53102687  0.03290335  0.72043424     0.01200
C997        C  0.50501247  0.00782505  0.70586550    -0.24100
C998        C  0.95562725  0.45565633  0.75311132    -0.28700
C999        C  0.96916647  0.46732266  0.77973534     0.06900
C1000       C  0.99518508  0.49239402  0.79430479    -0.27300
H1001       H  0.93428286  0.93760864  0.70304197     0.11600
H1002       H  0.95582509  0.96027189  0.68246357     0.12700
H1003       H  0.54437361  0.53994047  0.81770735     0.11800
H1004       H  0.56591742  0.56260043  0.79713034     0.11100
H1005       H  0.56456700  0.06376283  0.75866002     0.16400
H1006       H  0.99419606  0.99843057  0.68538663     0.12400
H1007       H  0.93561121  0.43647888  0.74150323     0.15200
H1008       H  0.50600592  0.50178550  0.81478507     0.15000
C1009       C  0.77456809  0.18770100  0.52140781    -0.17900
C1010       C  0.76001869  0.19899115  0.53153160    -0.20100
C1011       C  0.74414260  0.23302036  0.52361516     0.20600
C1012       C  0.74279178  0.25586320  0.50524318    -0.03000
C1013       C  0.75748799  0.24446999  0.99502989    -0.06000
C1014       C  0.77347992  0.21024272  0.50317920     0.20900
C1015       C  0.75613024  0.26730943  0.97665262     0.19000
C1016       C  0.74023951  0.30132997  0.96872509    -0.17500
C1017       C  0.72569294  0.31262117  0.97885106    -0.19800
C1018       C  0.72679756  0.29008864  0.99709220     0.20500
C1019       C  0.71241178  0.30130639  0.50747255    -0.32800
C1020       C  0.71397420  0.27886917  0.52607354     0.01200
C1021       C  0.72974214  0.24463821  0.53386317    -0.24100
C1022       C  0.78789787  0.19904479  0.99282300    -0.28700
C1023       C  0.78633554  0.22148312  0.97422239     0.06900
C1024       C  0.77054402  0.25569996  0.96641466    -0.27300
H1025       H  0.78667555  0.16131655  0.52783944     0.11600
H1026       H  0.76124202  0.18110706  0.54561722     0.12700
H1027       H  0.73900812  0.31920973  0.95463333     0.11800
H1028       H  0.71357938  0.33900218  0.97241489     0.11100
H1029       H  0.70055363  0.32780547  0.00143802     0.16400
H1030       H  0.73077495  0.22681719  0.54785769     0.12400
H1031       H  0.79974412  0.17253769  0.49884726     0.15200
H1032       H  0.76950839  0.27351791  0.95241709     0.15000
O1033       O  0.99368911  0.49989578  0.46129599    -0.73000
O1034       O  0.53679861  0.53787278  0.03719198    -0.74000
O1035       O  0.54900533  0.97983584  0.01553083    -0.62600
O1036       O  0.98067263  0.55776201  0.48187718    -0.71000
O1037       O  0.95125821  0.52040752  0.48470014    -0.70600
O1038       O  0.51958714  0.94248151  0.01834968    -0.61800
O1039       O  0.50657320  0.00033742  0.03892535    -0.74300
O1040       O  0.96346431  0.96236078  0.46303078    -0.73100
Cu1041     Cu  0.51609227  0.52021527  0.49893452     1.04600
Cu1042     Cu  0.98416754  0.98002433  0.00128825     1.04300
C1043       C  0.97198200  0.97505079  0.45029787     0.93200
C1044       C  0.52828577  0.52517421  0.04992641     0.92300
C1045       C  0.54493398  0.94885517  0.02212769     0.84500
C1046       C  0.95533325  0.55139362  0.47811219     0.90700
N1047       N  0.89188005  0.61579335  0.45611807    -0.27400
N1048       N  0.89576476  0.62404531  0.43856149    -0.35200
C1049       C  0.91945373  0.60304033  0.44420242     0.01000
C1050       C  0.93051585  0.57993337  0.46590961     0.07000
C1051       C  0.91248499  0.58854748  0.47292961    -0.06100
H1052       H  0.92714538  0.60356487  0.43262042     0.07700
H1053       H  0.91446805  0.57626503  0.48925271     0.08900
Cu1054     Cu  0.86655074  0.66015863  0.40553443     0.44200
Cu1055     Cu  0.85978382  0.64314760  0.45721148     0.42000
Cu1056     Cu  0.80818665  0.70959740  0.40151141     0.43900
N1057       N  0.83077761  0.69198582  0.37150234    -0.34700
N1058       N  0.80930146  0.71049198  0.37015047    -0.29000
C1059       C  0.78854360  0.72724348  0.34532668    -0.05100
C1060       C  0.79723587  0.71857630  0.33023871     0.07100
C1061       C  0.82412749  0.69618606  0.34745346     0.00900
H1062       H  0.76813922  0.74370950  0.33850744     0.08600
H1063       H  0.83754667  0.68341654  0.34271473     0.07600
N1064       N  0.81006990  0.70297850  0.43436178    -0.36200
N1065       N  0.82832203  0.67861755  0.45449913    -0.28400
C1066       C  0.82304170  0.68145391  0.47196716    -0.03600
C1067       C  0.80039044  0.70900471  0.46235121     0.05000
C1068       C  0.79282509  0.72191985  0.43845768     0.03100
H1069       H  0.83498995  0.66478328  0.49036151     0.08200
H1070       H  0.77553501  0.74306996  0.42459739     0.07000
N1071       N  0.60844573  0.88450664  0.04420261    -0.28000
N1072       N  0.60446464  0.87616828  0.06168506    -0.35200
C1073       C  0.58074501  0.89715126  0.05600816     0.01000
C1074       C  0.56976404  0.92032776  0.03435573     0.07000
C1075       C  0.58787525  0.91178179  0.02740701    -0.06100
H1076       H  0.57297148  0.89655750  0.06752636     0.07700
H1077       H  0.58596443  0.92412336  0.01113671     0.08900
Cu1078     Cu  0.63358313  0.83995737  0.09466394     0.44200
Cu1079     Cu  0.64059066  0.85722092  0.04314594     0.42000
Cu1080     Cu  0.69201603  0.79062669  0.09871776     0.43900
N1081       N  0.66935456  0.80810980  0.12868748    -0.34700
N1082       N  0.69085271  0.78964793  0.13004575    -0.29000
C1083       C  0.71163618  0.77292028  0.15487626    -0.05100
C1084       C  0.70294323  0.78156161  0.16996603     0.07100
C1085       C  0.67601794  0.80390401  0.15274204     0.00900
H1086       H  0.73206996  0.75650839  0.16170472     0.08600
H1087       H  0.66259679  0.81665533  0.15748470     0.07600
N1088       N  0.69022938  0.79733877  0.06593022    -0.36200
N1089       N  0.67203167  0.82175900  0.04583127    -0.28400
C1090       C  0.67733108  0.81895401  0.02837523    -0.03600
C1091       C  0.69993960  0.79135966  0.03796004     0.05000
C1092       C  0.70746187  0.77839084  0.06182475     0.03100
H1093       H  0.66541477  0.83566579  0.01000449     0.08200
H1094       H  0.72470272  0.75718707  0.07565322     0.07000
O1095       O  0.71172992  0.78451221  0.21139647    -0.73000
O1096       O  0.75782582  0.75351338  0.28969646    -0.74000
O1097       O  0.76803135  0.80889852  0.26564701    -0.62600
O1098       O  0.70225710  0.72900401  0.23646910    -0.71000
O1099       O  0.73220839  0.69130030  0.23457818    -0.70600
O1100       O  0.79798481  0.77119645  0.26375822    -0.61800
O1101       O  0.78850160  0.71567533  0.28882967    -0.74300
O1102       O  0.74240606  0.74667938  0.21052654    -0.73100
Cu1103     Cu  0.73388328  0.77036944  0.25079003     1.04600
Cu1104     Cu  0.76635603  0.72982693  0.24943669     1.04300
C1105       C  0.71974059  0.77040648  0.19861715     0.93200
C1106       C  0.78047752  0.72976956  0.30160227     0.92300
C1107       C  0.79343352  0.80251131  0.26954747     0.84500
C1108       C  0.70680594  0.69769105  0.23067647     0.90700
N1109       N  0.64173478  0.63486325  0.20693834    -0.27400
N1110       N  0.64430311  0.62889670  0.18829844    -0.35200
C1111       C  0.66886100  0.64907369  0.19481912     0.01000
C1112       C  0.68196778  0.66918634  0.21834161     0.07000
C1113       C  0.66412875  0.65982311  0.22543107    -0.06100
H1114       H  0.67548836  0.65053391  0.18245087     0.07700
H1115       H  0.66702709  0.67051589  0.24258693     0.08900
Cu1116     Cu  0.61217110  0.59751840  0.15279931     0.44200
Cu1117     Cu  0.60801748  0.60858763  0.20635527     0.42000
Cu1118     Cu  0.54998235  0.55165192  0.14606360     0.43900
N1119       N  0.57541288  0.56748936  0.11802200    -0.34700
N1120       N  0.55287595  0.55027137  0.11591182    -0.29000
C1121       C  0.53290394  0.53259958  0.09148042    -0.05100
C1122       C  0.54321781  0.53923732  0.07743080     0.07100
C1123       C  0.57016007  0.56157214  0.09474677     0.00900
H1124       H  0.51228753  0.51629581  0.08442780     0.08600
H1125       H  0.58500079  0.57240606  0.09087776     0.07600
N1126       N  0.55233572  0.55565688  0.17916982    -0.36200
N1127       N  0.57352645  0.57622022  0.20129244    -0.28400
C1128       C  0.56923017  0.57157383  0.21926836    -0.03600
C1129       C  0.54401437  0.54683687  0.20790660     0.05000
C1130       C  0.53395149  0.53747674  0.18237322     0.03100
H1131       H  0.58374423  0.58509696  0.23921283     0.08200
H1132       H  0.51497002  0.51851199  0.16719416     0.07000
N1133       N  0.85846965  0.86538268  0.29324982    -0.27400
N1134       N  0.85593861  0.87131430  0.31191626    -0.35200
C1135       C  0.83139867  0.85111642  0.30541322     0.01000
C1136       C  0.81826662  0.83102460  0.28187562     0.07000
C1137       C  0.83607101  0.84042480  0.27475768    -0.06100
H1138       H  0.82480163  0.84962656  0.31780296     0.07700
H1139       H  0.83314760  0.82975666  0.25758400     0.08900
Cu1140     Cu  0.88810698  0.90266931  0.34742883     0.44200
Cu1141     Cu  0.89215932  0.89168908  0.29381136     0.42000
Cu1142     Cu  0.95025070  0.94859324  0.35413389     0.43900
N1143       N  0.92487410  0.93269586  0.38221203    -0.34700
N1144       N  0.94739370  0.94994002  0.38431055    -0.29000
C1145       C  0.96736103  0.96762267  0.40873875    -0.05100
C1146       C  0.95706101  0.96096836  0.42279826     0.07100
C1147       C  0.93013423  0.93860731  0.40549171     0.00900
H1148       H  0.98795958  0.98395397  0.41577936     0.08600
H1149       H  0.91530295  0.92776030  0.40936707     0.07600
N1150       N  0.94786987  0.94458540  0.32101072    -0.36200
N1151       N  0.92666242  0.92403829  0.29888182    -0.28400
C1152       C  0.93095329  0.92867935  0.28090193    -0.03600
C1153       C  0.95618187  0.95339623  0.29226636     0.05000
C1154       C  0.96625934  0.96274911  0.31780642     0.03100
H1155       H  0.91642598  0.91516770  0.26095243     0.08200
H1156       H  0.98525422  0.98169880  0.33298974     0.07000
C1157       C  0.95433104  0.45682207  0.21469418    -0.17900
C1158       C  0.96663600  0.46975463  0.20295812    -0.20100
C1159       C  0.99259171  0.49466617  0.21751839     0.20600
C1160       C  0.50629611  0.50664599  0.24415735    -0.03000
C1161       C  0.99388295  0.99359221  0.25600261    -0.06000
C1162       C  0.96779803  0.46856698  0.24119520     0.20900
C1163       C  0.50759618  0.00556077  0.28264600     0.19000
C1164       C  0.53355770  0.03046376  0.29720968    -0.17500
C1165       C  0.54586329  0.04339469  0.28547439    -0.19800
C1166       C  0.53239000  0.03165812  0.25897024     0.20500
C1167       C  0.54455139  0.54458499  0.24705052    -0.32800
C1168       C  0.53102555  0.53290534  0.22043333     0.01200
C1169       C  0.50501304  0.50782447  0.20586561    -0.24100
C1170       C  0.95562754  0.95565560  0.25311120    -0.28700
C1171       C  0.96916460  0.96732485  0.27973404     0.06900
C1172       C  0.99518080  0.99239941  0.29430218    -0.27300
H1173       H  0.93428298  0.43760838  0.20304189     0.11600
H1174       H  0.95582550  0.46027106  0.18246362     0.12700
H1175       H  0.54437427  0.03993938  0.31770746     0.11800
H1176       H  0.56591809  0.06259932  0.29713045     0.11100
H1177       H  0.56456192  0.56376972  0.25865712     0.16400
H1178       H  0.99419622  0.49842993  0.18538655     0.12400
H1179       H  0.93561341  0.93647555  0.24150414     0.15200
H1180       H  0.50600591  0.00178541  0.31478485     0.15000
C1181       C  0.77457673  0.68770604  0.02141440    -0.17900
C1182       C  0.76002725  0.69899594  0.03153815    -0.20100
C1183       C  0.74414687  0.73302263  0.02361845     0.20600
C1184       C  0.74279184  0.75586316  0.00524323    -0.03000
C1185       C  0.75748809  0.74446993  0.49503004    -0.06000
C1186       C  0.77348432  0.71024541  0.00318254     0.20900
C1187       C  0.75613808  0.76731348  0.47665863     0.19000
C1188       C  0.74025475  0.80133840  0.46873661    -0.17500
C1189       C  0.72570787  0.81262985  0.47886230    -0.19800
C1190       C  0.72680475  0.79009318  0.49709755     0.20500
C1191       C  0.71240751  0.80130364  0.00746931    -0.32800
C1192       C  0.71397422  0.77886887  0.02607360     0.01200
C1193       C  0.72974629  0.74464032  0.03386636    -0.24100
C1194       C  0.78789080  0.69904012  0.49281791    -0.28700
C1195       C  0.78633607  0.72148260  0.47422305     0.06900
C1196       C  0.77055203  0.75570371  0.46642089    -0.27300
H1197       H  0.78668763  0.66132348  0.02784862     0.11600
H1198       H  0.76125387  0.68111365  0.04562632     0.12700
H1199       H  0.73902942  0.81922130  0.45464952     0.11800
H1200       H  0.71360018  0.83901421  0.47243050     0.11100
H1201       H  0.70056603  0.82781327  0.50144735     0.16400
H1202       H  0.73078241  0.72682098  0.04786344     0.12400
H1203       H  0.79975166  0.67254219  0.99885302     0.15200
H1204       H  0.76952245  0.77352469  0.45242780     0.15000
O1205       O  0.99368932  0.49989426  0.96129632    -0.73000
O1206       O  0.53679809  0.53787357  0.53719168    -0.74000
O1207       O  0.54900540  0.97983528  0.51553096    -0.62600
O1208       O  0.98067269  0.55776110  0.98187711    -0.71000
O1209       O  0.95125814  0.52040688  0.98470009    -0.70600
O1210       O  0.51958721  0.94248044  0.51834952    -0.61800
O1211       O  0.50657349  0.00033573  0.53892580    -0.74300
O1212       O  0.96346360  0.96236147  0.96303035    -0.73100
Cu1213     Cu  0.51609280  0.52021409  0.99893492     1.04600
Cu1214     Cu  0.98416815  0.98002318  0.50128876     1.04300
C1215       C  0.97198164  0.97505087  0.95029757     0.93200
C1216       C  0.52828551  0.52517440  0.54992618     0.92300
C1217       C  0.54493404  0.94885440  0.52212760     0.84500
C1218       C  0.95533323  0.55139289  0.97811208     0.90700
N1219       N  0.89188078  0.61579371  0.95611845    -0.27400
N1220       N  0.89576437  0.62404434  0.93856098    -0.35200
C1221       C  0.91945288  0.60303878  0.94420153     0.01000
C1222       C  0.93051582  0.57993275  0.96590941     0.07000
C1223       C  0.91248593  0.58854805  0.97293022    -0.06100
H1224       H  0.92714369  0.60356230  0.93261886     0.07700
H1225       H  0.91446983  0.57626670  0.98925396     0.08900
Cu1226     Cu  0.86654951  0.66015697  0.90553352     0.44200
Cu1227     Cu  0.85978569  0.64314946  0.95721267     0.42000
Cu1228     Cu  0.80818475  0.70959491  0.90151033     0.43900
N1229       N  0.83077621  0.69198438  0.87150155    -0.34700
N1230       N  0.80929974  0.71049001  0.87014954    -0.29000
C1231       C  0.78854217  0.72724205  0.84532595    -0.05100
C1232       C  0.79723493  0.71857580  0.83023822     0.07100
C1233       C  0.82412657  0.69618559  0.84745296     0.00900
H1234       H  0.76813764  0.74370785  0.83850667     0.08600
H1235       H  0.83754614  0.68341669  0.84271437     0.07600
N1236       N  0.81006968  0.70297811  0.93436172    -0.36200
N1237       N  0.82832357  0.67861901  0.95450018    -0.28400
C1238       C  0.82304433  0.68145654  0.97196889    -0.03600
C1239       C  0.80039180  0.70900601  0.96235215     0.05000
C1240       C  0.79282463  0.72191925  0.93845745     0.03100
H1241       H  0.83499402  0.66478733  0.99036414     0.08200
H1242       H  0.77553316  0.74306775  0.92459626     0.07000
N1243       N  0.60844654  0.88450693  0.54420308    -0.28000
N1244       N  0.60446422  0.87616716  0.56168453    -0.35200
C1245       C  0.58074406  0.89714949  0.55600718     0.01000
C1246       C  0.56976413  0.92032713  0.53435558     0.07000
C1247       C  0.58787638  0.91178238  0.52740775    -0.06100
H1248       H  0.57296954  0.89655458  0.56752460     0.07700
H1249       H  0.58596654  0.92412509  0.51113819     0.08900
Cu1250     Cu  0.63358190  0.83995570  0.59466303     0.44200
Cu1251     Cu  0.64059270  0.85722277  0.54314733     0.42000
Cu1252     Cu  0.69201382  0.79062393  0.59871647     0.43900
N1253       N  0.66935301  0.80810818  0.62868656    -0.34700
N1254       N  0.69085080  0.78964567  0.63004468    -0.29000
C1255       C  0.71163450  0.77291857  0.65487538    -0.05100
C1256       C  0.70294210  0.78156093  0.66996542     0.07100
C1257       C  0.67601685  0.80390337  0.65274137     0.00900
H1258       H  0.73206819  0.75650639  0.66170383     0.08600
H1259       H  0.66259607  0.81665546  0.65748418     0.07600
N1260       N  0.69022918  0.79733838  0.56593016    -0.36200
N1261       N  0.67203327  0.82176053  0.54583235    -0.28400
C1262       C  0.67733365  0.81895656  0.52837693    -0.03600
C1263       C  0.69994078  0.79136085  0.53796084     0.05000
C1264       C  0.70746136  0.77839020  0.56182447     0.03100
H1265       H  0.66541873  0.83566984  0.51000701     0.08200
H1266       H  0.72470080  0.75718485  0.57565205     0.07000
O1267       O  0.71172923  0.78451244  0.71139609    -0.73000
O1268       O  0.75782510  0.75351337  0.78969618    -0.74000
O1269       O  0.76803058  0.80889881  0.76564676    -0.62600
O1270       O  0.70225644  0.72900454  0.73646881    -0.71000
O1271       O  0.73220776  0.69130061  0.73457803    -0.70600
O1272       O  0.79798401  0.77119700  0.76375777    -0.61800
O1273       O  0.78850100  0.71567560  0.78882934    -0.74300
O1274       O  0.74240530  0.74667939  0.71052619    -0.73100
Cu1275     Cu  0.73388259  0.77036971  0.75078974     1.04600
Cu1276     Cu  0.76635540  0.72982721  0.74943639     1.04300
C1277       C  0.71973977  0.77040642  0.69861673     0.93200
C1278       C  0.78047679  0.72976954  0.80160192     0.92300
C1279       C  0.79343266  0.80251181  0.76954705     0.84500
C1280       C  0.70680523  0.69769155  0.73067621     0.90700
N1281       N  0.64173304  0.63486500  0.70693738    -0.27400
N1282       N  0.64430169  0.62889799  0.68829774    -0.35200
C1283       C  0.66885998  0.64907444  0.69481869     0.01000
C1284       C  0.68196679  0.66918713  0.71834117     0.07000
C1285       C  0.66412724  0.65982463  0.72543027    -0.06100
H1286       H  0.67548769  0.65053415  0.68245071     0.07700
H1287       H  0.66702540  0.67051757  0.74258591     0.08900
Cu1288     Cu  0.61217005  0.59751920  0.65279883     0.44200
Cu1289     Cu  0.60801544  0.60858982  0.70635418     0.42000
Cu1290     Cu  0.54998484  0.55164803  0.64606519     0.43900
N1291       N  0.57541253  0.56748925  0.61802183    -0.34700
N1292       N  0.55287680  0.55026936  0.61591237    -0.29000
C1293       C  0.53290491  0.53259739  0.59148102    -0.05100
C1294       C  0.54321772  0.53923698  0.57743074     0.07100
C1295       C  0.57015917  0.56157305  0.59474625     0.00900
H1296       H  0.51228934  0.51629229  0.58442887     0.08600
H1297       H  0.58499895  0.57240855  0.59087671     0.07600
N1298       N  0.55233706  0.55565458  0.67917075    -0.36200
N1299       N  0.57352571  0.57622071  0.70129216    -0.28400
C1300       C  0.56922872  0.57157536  0.71926771    -0.03600
C1301       C  0.54401472  0.54683600  0.70790696     0.05000
C1302       C  0.53395363  0.53747346  0.68237462     0.03100
H1303       H  0.58374063  0.58510135  0.73921096     0.08200
H1304       H  0.51497440  0.51850576  0.66719690     0.07000
N1305       N  0.85846810  0.86538422  0.79324896    -0.27400
N1306       N  0.85593725  0.87131545  0.81191556    -0.35200
C1307       C  0.83139762  0.85111711  0.80541270     0.01000
C1308       C  0.81826560  0.83102531  0.78187510     0.07000
C1309       C  0.83606970  0.84042609  0.77475697    -0.06100
H1310       H  0.82480078  0.84962690  0.81780262     0.07700
H1311       H  0.83314631  0.82975812  0.75758321     0.08900
Cu1312     Cu  0.88810583  0.90267016  0.84742822     0.44200
Cu1313     Cu  0.89215759  0.89169097  0.79381047     0.42000
Cu1314     Cu  0.95025256  0.94858989  0.85413509     0.43900
N1315       N  0.92487369  0.93269582  0.88221180    -0.34700
N1316       N  0.94739440  0.94993823  0.88431099    -0.29000
C1317       C  0.96736188  0.96762067  0.90873927    -0.05100
C1318       C  0.95706082  0.96096805  0.92279813     0.07100
C1319       C  0.93013329  0.93860814  0.90549116     0.00900
H1320       H  0.98796123  0.98395070  0.91578037     0.08600
H1321       H  0.91530119  0.92776255  0.90936599     0.07600
N1322       N  0.94787122  0.94458303  0.82101165    -0.36200
N1323       N  0.92666199  0.92403837  0.79888169    -0.28400
C1324       C  0.93095238  0.92868019  0.78090156    -0.03600
C1325       C  0.95618255  0.95339500  0.79226692     0.05000
C1326       C  0.96626146  0.96274583  0.81780782     0.03100
H1327       H  0.91642334  0.91517092  0.76095107     0.08200
H1328       H  0.98525823  0.98169310  0.83299227     0.07000
C1329       C  0.95431437  0.45684512  0.71468534    -0.17900
C1330       C  0.96661886  0.46977827  0.70294900    -0.20100
C1331       C  0.99258391  0.49467725  0.71751436     0.20600
C1332       C  0.50629724  0.50664411  0.74415814    -0.03000
C1333       C  0.99388417  0.99359033  0.75600347    -0.06000
C1334       C  0.96779112  0.46857690  0.74119169     0.20900
C1335       C  0.50759063  0.00556880  0.78264323     0.19000
C1336       C  0.53354470  0.03048182  0.79720286    -0.17500
C1337       C  0.54585056  0.04341246  0.78546773    -0.19800
C1338       C  0.53238499  0.03166554  0.75896779     0.20500
C1339       C  0.54456072  0.54457198  0.74705574    -0.32800
C1340       C  0.53102601  0.53290432  0.72043374     0.01200
C1341       C  0.50500477  0.50783513  0.70586123    -0.24100
C1342       C  0.95563531  0.95564492  0.75311561    -0.28700
C1343       C  0.96916549  0.96732342  0.77973473     0.06900
C1344       C  0.99517498  0.99240697  0.79429920    -0.27300
H1345       H  0.93425892  0.43764140  0.70302903     0.11600
H1346       H  0.95580064  0.46030510  0.68245031     0.12700
H1347       H  0.54435514  0.03996561  0.81769726     0.11800
H1348       H  0.56589943  0.06262503  0.79712055     0.11100
H1349       H  0.56457855  0.56374694  0.75866629     0.16400
H1350       H  0.99417937  0.49845329  0.68537750     0.12400
H1351       H  0.93562686  0.93645723  0.74151163     0.15200
H1352       H  0.50599321  0.00180308  0.81477819     0.15000
C1353       C  0.77456981  0.68770219  0.52140928    -0.17900
C1354       C  0.76002094  0.69899272  0.53153344    -0.20100
C1355       C  0.74414413  0.73302149  0.52361637     0.20600
C1356       C  0.74279207  0.75586351  0.50524337    -0.03000
C1357       C  0.75748850  0.74447023  0.99503034    -0.06000
C1358       C  0.77348038  0.71024302  0.50317963     0.20900
C1359       C  0.75613547  0.76731225  0.97665668     0.19000
C1360       C  0.74024853  0.80133504  0.96873199    -0.17500
C1361       C  0.72570107  0.81262586  0.97885727    -0.19800
C1362       C  0.72680094  0.79009071  0.99709476     0.20500
C1363       C  0.71241172  0.80130659  0.50747238    -0.32800
C1364       C  0.71397534  0.77887012  0.52607435     0.01200
C1365       C  0.72974410  0.74463969  0.53386466    -0.24100
C1366       C  0.78789520  0.69904301  0.99282114    -0.28700
C1367       C  0.78633739  0.72148385  0.97422397     0.06900
C1368       C  0.77054987  0.75570297  0.96641925    -0.27300
H1369       H  0.78667790  0.66131799  0.52784143     0.11600
H1370       H  0.76124517  0.68110925  0.54561982     0.12700
H1371       H  0.73902073  0.81921673  0.95464305     0.11800
H1372       H  0.71359055  0.83900861  0.97242341     0.11100
H1373       H  0.70055916  0.82780886  0.00144227     0.16400
H1374       H  0.73077786  0.72681923  0.54786000     0.12400
H1375       H  0.79974459  0.67253782  0.49884778     0.15200
H1376       H  0.76951776  0.77352271  0.95242430     0.15000
loop_ 
_geom_bond_atom_site_label_1 
_geom_bond_atom_site_label_2 
_geom_bond_distance 
_geom_bond_site_symmetry_2 
_ccdc_geom_bond_type 
O1         Cu697   1.995   1_565  S
O1          C355   1.276       .  A
O2         Cu181   2.015   1_554  S
O2           C12   1.278       .  A
O3         Cu525   2.009   1_554  S
O3           C13   1.277       .  A
O4         Cu697   2.014       .  S
O4           C14   1.278       .  A
O5         Cu526   2.009   1_545  S
O5           C14   1.277       .  A
O6         Cu698   2.014   1_455  S
O6           C13   1.278       .  A
O7         Cu698   1.994   1_455  S
O7          C356   1.276       .  A
O8         Cu182   2.015       .  S
O8           C11   1.278       .  A
Cu9         O689   1.995   1_445  S
Cu9         O174   2.015       .  S
Cu9         O519   2.009   1_545  S
Cu9         O692   2.014   1_455  S
Cu9       Cu1214   2.378   1_445  S
Cu10        O521   2.009   1_554  S
Cu10        O694   2.014       .  S
Cu10        O695   1.994       .  S
Cu10        O180   2.015   1_554  S
Cu10      Cu1213   2.378   1_554  S
C11         O345   1.276       .  A
C11         C114   1.465       .  S
C12         O351   1.276       .  A
C12          C90   1.465       .  S
C13          C42   1.466       .  S
C14          C18   1.466       .  S
N15          N16   1.324       .  A
N15          C19   1.347       .  A
N15         Cu23   2.084       .  S
N16          C17   1.345       .  A
N16         Cu22   2.073       .  S
C17          C18   1.380       .  A
C17          H20   1.082       .  S
C18          C19   1.383       .  A
C19          H21   1.082       .  S
Cu22         N25   2.073       .  S
Cu23         N33   2.084       .  S
Cu24         N26   2.070       .  S
Cu24         N32   2.070       .  S
N25          N26   1.321       .  A
N25          C29   1.346       .  A
N26          C27   1.345       .  A
C27          C28   1.383       .  A
C27          H30   1.082       .  S
C28          C74   1.470       .  S
C28          C29   1.384       .  A
C29          H31   1.082       .  S
N32          N33   1.322       .  A
N32          C36   1.342       .  A
N33          C34   1.347       .  A
C34          C35   1.390       .  A
C34          H37   1.082       .  S
C35         C163   1.485       .  S
C35          C36   1.385       .  A
C36          H38   1.081       .  S
N39          N40   1.324       .  A
N39          C43   1.347       .  A
N39         Cu47   2.084       .  S
N40          C41   1.345       .  A
N40         Cu46   2.073       .  S
C41          C42   1.380       .  A
C41          H44   1.082       .  S
C42          C43   1.383       .  A
C43          H45   1.082       .  S
Cu46         N49   2.073       .  S
Cu47         N57   2.084       .  S
Cu48         N50   2.070       .  S
Cu48         N56   2.070       .  S
N49          N50   1.321       .  A
N49          C53   1.346       .  A
N50          C51   1.345       .  A
C51          C52   1.383       .  A
C51          H54   1.082       .  S
C52          C73   1.470       .  S
C52          C53   1.384       .  A
C53          H55   1.082       .  S
N56          N57   1.322       .  A
N56          C60   1.342       .  A
N57          C58   1.347       .  A
C58          C59   1.390       .  A
C58          H61   1.082       .  S
C59         C160   1.485       .  S
C59          C60   1.385       .  A
C60          H62   1.081       .  S
O63         Cu71   2.021       .  S
O63          C73   1.279       .  A
O64         Cu71   2.003       .  S
O64          C74   1.277       .  A
O65         Cu71   2.011       .  S
O65          C75   1.277       .  A
O66         Cu71   2.007       .  S
O66          C76   1.276       .  A
O67         Cu72   2.011       .  S
O67          C76   1.277       .  A
O68         Cu72   2.007       .  S
O68          C75   1.276       .  A
O69         Cu72   2.022       .  S
O69          C74   1.279       .  A
O70         Cu72   2.003       .  S
O70          C73   1.277       .  A
Cu71        Cu72   2.377       .  S
C75         C104   1.463       .  S
C76          C80   1.463       .  S
N77          N78   1.323       .  A
N77          C81   1.347       .  A
N77         Cu85   2.078       .  S
N78          C79   1.343       .  A
N78         Cu84   2.071       .  S
C79          C80   1.379       .  A
C79          H82   1.082       .  S
C80          C81   1.383       .  A
C81          H83   1.082       .  S
Cu84         N87   2.070       .  S
Cu85         N95   2.077       .  S
Cu86         N88   2.062       .  S
Cu86         N94   2.062       .  S
N87          N88   1.321       .  A
N87          C91   1.346       .  A
N88          C89   1.342       .  A
C89          C90   1.380       .  A
C89          H92   1.082       .  S
C90          C91   1.383       .  A
C91          H93   1.082       .  S
N94          N95   1.320       .  A
N94          C98   1.342       .  A
N95          C96   1.344       .  A
C96          C97   1.390       .  A
C96          H99   1.081       .  S
C97         C136   1.487       .  S
C97          C98   1.387       .  A
C98         H100   1.081       .  S
N101        N102   1.323       .  A
N101        C105   1.347       .  A
N101       Cu109   2.078       .  S
N102        C103   1.343       .  A
N102       Cu108   2.071       .  S
C103        C104   1.379       .  A
C103        H106   1.082       .  S
C104        C105   1.383       .  A
C105        H107   1.082       .  S
Cu108       N111   2.071       .  S
Cu109       N119   2.077       .  S
Cu110       N112   2.062       .  S
Cu110       N118   2.062       .  S
N111        N112   1.321       .  A
N111        C115   1.346       .  A
N112        C113   1.342       .  A
C113        C114   1.380       .  A
C113        H116   1.082       .  S
C114        C115   1.383       .  A
C115        H117   1.082       .  S
N118        N119   1.320       .  A
N118        C122   1.342       .  A
N119        C120   1.344       .  A
C120        C121   1.390       .  A
C120        H123   1.081       .  S
C121        C139   1.487       .  S
C121        C122   1.387       .  A
C122        H124   1.081       .  S
C125        C126   1.398       .  A
C125        C130   1.403       .  A
C125        H141   1.083       .  S
C126        C127   1.404       .  A
C126        H142   1.084       .  S
C127        C825   1.402   1_565  A
C127        C816   1.410   1_565  A
C128        C815   1.410   1_445  A
C128        C478   1.410       .  A
C128       C1161   1.411   1_445  A
C129       C1160   1.411       .  A
C129        C819   1.410       .  A
C129        C474   1.410       .  A
C130        C473   1.410       .  A
C130        C482   1.402       .  A
C131        C132   1.404       .  A
C131        C817   1.410   1_455  A
C131        C828   1.402   1_455  A
C132        C133   1.398       .  A
C132        H143   1.084       .  S
C133        C134   1.403       .  A
C133        H144   1.083       .  S
C134        C472   1.410       .  A
C134        C479   1.402       .  A
C135        C136   1.408       .  A
C135        C478   1.402       .  A
C135        H145   1.082       .  S
C136        C137   1.409       .  A
C137        C815   1.402   1_445  A
C137        H834   1.082   1_445  S
C138        C139   1.408       .  A
C138        C474   1.402       .  A
C138        H147   1.082       .  S
C139        C140   1.409       .  A
C140        C819   1.402       .  A
C140        H836   1.082       .  S
H146        C825   1.082   1_565  S
H148        C828   1.082   1_455  S
C149        C150   1.399       .  A
C149        C154   1.403       .  A
C149        H165   1.083       .  S
C150        C151   1.404       .  A
C150        H166   1.084       .  S
C151        C161   1.402       .  A
C151        C152   1.410       .  A
C152        C330   1.412   1_554  A
C152        C325   1.412   1_554  A
C153        C155   1.410       .  A
C153        C324   1.412       .  A
C153        C326   1.412       .  A
C154        C325   1.412   1_554  A
C154        C334   1.404   1_554  A
C155        C164   1.402       .  A
C155        C156   1.404       .  A
C156        C157   1.399       .  A
C156        H167   1.084       .  S
C157        C158   1.403       .  A
C157        H168   1.083       .  S
C158        C324   1.412       .  A
C158        C331   1.404       .  A
C159        C160   1.407       .  A
C159        C330   1.404   1_554  A
C159        H341   1.083       .  S
C160        C161   1.408       .  A
C161        H170   1.083       .  S
C162        C163   1.407       .  A
C162        C326   1.404       .  A
C162        H343   1.083       .  S
C163        C164   1.408       .  A
C164        H172   1.083       .  S
H169        C331   1.083       .  S
H171        C334   1.083       .  S
O173       Cu869   1.995   1_565  S
O173        C527   1.276       .  A
O174        C184   1.278       .  A
O175       Cu353   2.009       .  S
O175        C185   1.277       .  A
O176       Cu869   2.014       .  S
O176        C186   1.278       .  A
O177       Cu354   2.009   1_546  S
O177        C186   1.277       .  A
O178       Cu870   2.014   1_455  S
O178        C185   1.278       .  A
O179       Cu870   1.994   1_455  S
O179        C528   1.276       .  A
O180        C183   1.278       .  A
Cu181       O861   1.995   1_445  S
Cu181       O347   2.009   1_546  S
Cu181       O864   2.014   1_455  S
Cu181     Cu1042   2.378   1_446  S
Cu182       O349   2.009       .  S
Cu182       O866   2.014       .  S
Cu182       O867   1.994       .  S
Cu182     Cu1041   2.378       .  S
C183        O517   1.276       .  A
C183        C286   1.465       .  S
C184        O523   1.276       .  A
C184        C262   1.465       .  S
C185        C214   1.466       .  S
C186        C190   1.466       .  S
N187        N188   1.324       .  A
N187        C191   1.347       .  A
N187       Cu195   2.084       .  S
N188        C189   1.345       .  A
N188       Cu194   2.073       .  S
C189        C190   1.380       .  A
C189        H192   1.082       .  S
C190        C191   1.383       .  A
C191        H193   1.082       .  S
Cu194       N197   2.073       .  S
Cu195       N205   2.084       .  S
Cu196       N198   2.070       .  S
Cu196       N204   2.070       .  S
N197        N198   1.321       .  A
N197        C201   1.346       .  A
N198        C199   1.345       .  A
C199        C200   1.383       .  A
C199        H202   1.082       .  S
C200        C246   1.470       .  S
C200        C201   1.384       .  A
C201        H203   1.082       .  S
N204        N205   1.322       .  A
N204        C208   1.342       .  A
N205        C206   1.347       .  A
C206        C207   1.390       .  A
C206        H209   1.082       .  S
C207        C335   1.485       .  S
C207        C208   1.385       .  A
C208        H210   1.081       .  S
N211        N212   1.324       .  A
N211        C215   1.347       .  A
N211       Cu219   2.084       .  S
N212        C213   1.345       .  A
N212       Cu218   2.073       .  S
C213        C214   1.380       .  A
C213        H216   1.082       .  S
C214        C215   1.383       .  A
C215        H217   1.082       .  S
Cu218       N221   2.073       .  S
Cu219       N229   2.084       .  S
Cu220       N222   2.070       .  S
Cu220       N228   2.070       .  S
N221        N222   1.321       .  A
N221        C225   1.346       .  A
N222        C223   1.345       .  A
C223        C224   1.383       .  A
C223        H226   1.082       .  S
C224        C245   1.470       .  S
C224        C225   1.384       .  A
C225        H227   1.082       .  S
N228        N229   1.322       .  A
N228        C232   1.342       .  A
N229        C230   1.347       .  A
C230        C231   1.390       .  A
C230        H233   1.082       .  S
C231        C332   1.485       .  S
C231        C232   1.385       .  A
C232        H234   1.081       .  S
O235       Cu243   2.021       .  S
O235        C245   1.279       .  A
O236       Cu243   2.003       .  S
O236        C246   1.277       .  A
O237       Cu243   2.011       .  S
O237        C247   1.277       .  A
O238       Cu243   2.007       .  S
O238        C248   1.276       .  A
O239       Cu244   2.011       .  S
O239        C248   1.277       .  A
O240       Cu244   2.007       .  S
O240        C247   1.276       .  A
O241       Cu244   2.022       .  S
O241        C246   1.279       .  A
O242       Cu244   2.003       .  S
O242        C245   1.277       .  A
Cu243      Cu244   2.377       .  S
C247        C276   1.463       .  S
C248        C252   1.463       .  S
N249        N250   1.323       .  A
N249        C253   1.347       .  A
N249       Cu257   2.078       .  S
N250        C251   1.343       .  A
N250       Cu256   2.071       .  S
C251        C252   1.379       .  A
C251        H254   1.082       .  S
C252        C253   1.383       .  A
C253        H255   1.082       .  S
Cu256       N259   2.070       .  S
Cu257       N267   2.077       .  S
Cu258       N260   2.062       .  S
Cu258       N266   2.062       .  S
N259        N260   1.321       .  A
N259        C263   1.346       .  A
N260        C261   1.342       .  A
C261        C262   1.380       .  A
C261        H264   1.082       .  S
C262        C263   1.383       .  A
C263        H265   1.082       .  S
N266        N267   1.320       .  A
N266        C270   1.342       .  A
N267        C268   1.344       .  A
C268        C269   1.390       .  A
C268        H271   1.081       .  S
C269        C308   1.487       .  S
C269        C270   1.387       .  A
C270        H272   1.081       .  S
N273        N274   1.323       .  A
N273        C277   1.347       .  A
N273       Cu281   2.078       .  S
N274        C275   1.343       .  A
N274       Cu280   2.071       .  S
C275        C276   1.379       .  A
C275        H278   1.082       .  S
C276        C277   1.383       .  A
C277        H279   1.082       .  S
Cu280       N283   2.071       .  S
Cu281       N291   2.077       .  S
Cu282       N284   2.062       .  S
Cu282       N290   2.062       .  S
N283        N284   1.321       .  A
N283        C287   1.346       .  A
N284        C285   1.342       .  A
C285        C286   1.380       .  A
C285        H288   1.082       .  S
C286        C287   1.383       .  A
C287        H289   1.082       .  S
N290        N291   1.320       .  A
N290        C294   1.342       .  A
N291        C292   1.344       .  A
C292        C293   1.390       .  A
C292        H295   1.081       .  S
C293        C311   1.487       .  S
C293        C294   1.387       .  A
C294        H296   1.081       .  S
C297        C298   1.398       .  A
C297        C302   1.403       .  A
C297        H313   1.083       .  S
C298        C299   1.404       .  A
C298        H314   1.084       .  S
C299        C997   1.402   1_565  A
C299        C988   1.410   1_565  A
C300        C987   1.410   1_445  A
C300        C650   1.410       .  A
C300       C1333   1.411   1_445  A
C301       C1332   1.411       .  A
C301        C991   1.410       .  A
C301        C646   1.410       .  A
C302        C645   1.410       .  A
C302        C654   1.402       .  A
C303        C989   1.410   1_455  A
C303       C1000   1.402   1_455  A
C303        C304   1.404       .  A
C304        C305   1.398       .  A
C304        H315   1.084       .  S
C305        C306   1.403       .  A
C305        H316   1.083       .  S
C306        C644   1.410       .  A
C306        C651   1.402       .  A
C307        C650   1.402       .  A
C307        C308   1.408       .  A
C307        H317   1.082       .  S
C308        C309   1.409       .  A
C309        C987   1.402   1_445  A
C309       H1006   1.082   1_445  S
C310        C646   1.402       .  A
C310        C311   1.408       .  A
C310        H319   1.082       .  S
C311        C312   1.409       .  A
C312        C991   1.402       .  A
C312       H1008   1.082       .  S
H318        C997   1.082   1_565  S
H320       C1000   1.082   1_455  S
C321        C322   1.399       .  A
C321        C326   1.403       .  A
C321        H337   1.083       .  S
C322        C323   1.404       .  A
C322        H338   1.084       .  S
C323        C333   1.402       .  A
C323        C324   1.410       .  A
C325        C327   1.410       .  A
C327        C336   1.402       .  A
C327        C328   1.404       .  A
C328        C329   1.399       .  A
C328        H339   1.084       .  S
C329        C330   1.403       .  A
C329        H340   1.083       .  S
C331        C332   1.407       .  A
C332        C333   1.408       .  A
C333        H342   1.083       .  S
C334        C335   1.407       .  A
C335        C336   1.408       .  A
C336        H344   1.083       .  S
O345      Cu1041   1.995       .  S
O346       Cu525   2.015   1_554  S
O346        C356   1.278       .  A
O347        C357   1.277       .  A
O348      Cu1041   2.014       .  S
O348        C358   1.278       .  A
O349        C358   1.277       .  A
O350      Cu1042   2.014   1_455  S
O350        C357   1.278       .  A
O351      Cu1042   1.994   1_445  S
O352       Cu526   2.015       .  S
O352        C355   1.278       .  A
Cu353      O1033   1.995   1_455  S
Cu353       O518   2.015       .  S
Cu353      O1036   2.014   1_455  S
Cu353      Cu870   2.378   1_455  S
Cu354      O1038   2.014       .  S
Cu354      O1039   1.994   1_565  S
Cu354       O524   2.015   1_554  S
Cu354      Cu869   2.378   1_564  S
C355        C458   1.465       .  S
C356        C434   1.465       .  S
C357        C386   1.466       .  S
C358        C362   1.466       .  S
N359        N360   1.324       .  A
N359        C363   1.347       .  A
N359       Cu367   2.084       .  S
N360        C361   1.345       .  A
N360       Cu366   2.073       .  S
C361        C362   1.380       .  A
C361        H364   1.082       .  S
C362        C363   1.383       .  A
C363        H365   1.082       .  S
Cu366       N369   2.073       .  S
Cu367       N377   2.084       .  S
Cu368       N370   2.070       .  S
Cu368       N376   2.070       .  S
N369        N370   1.321       .  A
N369        C373   1.346       .  A
N370        C371   1.345       .  A
C371        C372   1.383       .  A
C371        H374   1.082       .  S
C372        C418   1.470       .  S
C372        C373   1.384       .  A
C373        H375   1.082       .  S
N376        N377   1.322       .  A
N376        C380   1.342       .  A
N377        C378   1.347       .  A
C378        C379   1.390       .  A
C378        H381   1.082       .  S
C379        C507   1.485       .  S
C379        C380   1.385       .  A
C380        H382   1.081       .  S
N383        N384   1.324       .  A
N383        C387   1.347       .  A
N383       Cu391   2.084       .  S
N384        C385   1.345       .  A
N384       Cu390   2.073       .  S
C385        C386   1.380       .  A
C385        H388   1.082       .  S
C386        C387   1.383       .  A
C387        H389   1.082       .  S
Cu390       N393   2.073       .  S
Cu391       N401   2.084       .  S
Cu392       N394   2.070       .  S
Cu392       N400   2.070       .  S
N393        N394   1.321       .  A
N393        C397   1.346       .  A
N394        C395   1.345       .  A
C395        C396   1.383       .  A
C395        H398   1.082       .  S
C396        C417   1.470       .  S
C396        C397   1.384       .  A
C397        H399   1.082       .  S
N400        N401   1.322       .  A
N400        C404   1.342       .  A
N401        C402   1.347       .  A
C402        C403   1.390       .  A
C402        H405   1.082       .  S
C403        C504   1.485       .  S
C403        C404   1.385       .  A
C404        H406   1.081       .  S
O407       Cu415   2.021       .  S
O407        C417   1.279       .  A
O408       Cu415   2.003       .  S
O408        C418   1.277       .  A
O409       Cu415   2.011       .  S
O409        C419   1.277       .  A
O410       Cu415   2.007       .  S
O410        C420   1.276       .  A
O411       Cu416   2.011       .  S
O411        C420   1.277       .  A
O412       Cu416   2.007       .  S
O412        C419   1.276       .  A
O413       Cu416   2.022       .  S
O413        C418   1.279       .  A
O414       Cu416   2.003       .  S
O414        C417   1.277       .  A
Cu415      Cu416   2.377       .  S
C419        C448   1.463       .  S
C420        C424   1.463       .  S
N421        N422   1.323       .  A
N421        C425   1.347       .  A
N421       Cu429   2.078       .  S
N422        C423   1.343       .  A
N422       Cu428   2.071       .  S
C423        C424   1.379       .  A
C423        H426   1.082       .  S
C424        C425   1.383       .  A
C425        H427   1.082       .  S
Cu428       N431   2.070       .  S
Cu429       N439   2.077       .  S
Cu430       N432   2.062       .  S
Cu430       N438   2.062       .  S
N431        N432   1.321       .  A
N431        C435   1.346       .  A
N432        C433   1.342       .  A
C433        C434   1.380       .  A
C433        H436   1.082       .  S
C434        C435   1.383       .  A
C435        H437   1.082       .  S
N438        N439   1.320       .  A
N438        C442   1.342       .  A
N439        C440   1.344       .  A
C440        C441   1.390       .  A
C440        H443   1.081       .  S
C441        C480   1.487       .  S
C441        C442   1.387       .  A
C442        H444   1.081       .  S
N445        N446   1.323       .  A
N445        C449   1.347       .  A
N445       Cu453   2.078       .  S
N446        C447   1.343       .  A
N446       Cu452   2.071       .  S
C447        C448   1.379       .  A
C447        H450   1.082       .  S
C448        C449   1.383       .  A
C449        H451   1.082       .  S
Cu452       N455   2.071       .  S
Cu453       N463   2.077       .  S
Cu454       N456   2.062       .  S
Cu454       N462   2.062       .  S
N455        N456   1.321       .  A
N455        C459   1.346       .  A
N456        C457   1.342       .  A
C457        C458   1.380       .  A
C457        H460   1.082       .  S
C458        C459   1.383       .  A
C459        H461   1.082       .  S
N462        N463   1.320       .  A
N462        C466   1.342       .  A
N463        C464   1.344       .  A
C464        C465   1.390       .  A
C464        H467   1.081       .  S
C465        C483   1.487       .  S
C465        C466   1.387       .  A
C466        H468   1.081       .  S
C469        C470   1.398       .  A
C469        C474   1.403       .  A
C469        H485   1.083       .  S
C470        C471   1.404       .  A
C470        H486   1.084       .  S
C471       C1169   1.402       .  A
C471       C1160   1.410       .  A
C472       C1159   1.410   1_455  A
C472        C817   1.411   1_455  A
C473        C816   1.411   1_565  A
C473       C1163   1.410   1_565  A
C475       C1161   1.410   1_445  A
C475       C1172   1.402   1_445  A
C475        C476   1.404       .  A
C476        C477   1.398       .  A
C476        H487   1.084       .  S
C477        C478   1.403       .  A
C477        H488   1.083       .  S
C479        C480   1.408       .  A
C479        H489   1.082       .  S
C480        C481   1.409       .  A
C481       C1159   1.402   1_455  A
C481       H1178   1.082   1_455  S
C482        C483   1.408       .  A
C482        H491   1.082       .  S
C483        C484   1.409       .  A
C484       C1163   1.402   1_565  A
C484       H1180   1.082   1_565  S
H490       C1169   1.082       .  S
H492       C1172   1.082   1_445  S
C493        C494   1.399       .  A
C493        C498   1.403       .  A
C493        H509   1.083       .  S
C494        C495   1.404       .  A
C494        H510   1.084       .  S
C495        C505   1.402       .  A
C495        C496   1.410       .  A
C496        C674   1.412   1_554  A
C496        C669   1.412   1_554  A
C497        C668   1.412       .  A
C497        C499   1.410       .  A
C497        C670   1.412       .  A
C498        C669   1.412   1_554  A
C498        C678   1.404   1_554  A
C499        C508   1.402       .  A
C499        C500   1.404       .  A
C500        C501   1.399       .  A
C500        H511   1.084       .  S
C501        C502   1.403       .  A
C501        H512   1.083       .  S
C502        C668   1.412       .  A
C502        C675   1.404       .  A
C503        C674   1.404   1_554  A
C503        C504   1.407       .  A
C503        H685   1.083       .  S
C504        C505   1.408       .  A
C505        H514   1.083       .  S
C506        C670   1.404       .  A
C506        C507   1.407       .  A
C506        H687   1.083       .  S
C507        C508   1.408       .  A
C508        H516   1.083       .  S
H513        C675   1.083       .  S
H515        C678   1.083       .  S
O517      Cu1213   1.995       .  S
O518        C528   1.278       .  A
O519        C529   1.277       .  A
O520      Cu1213   2.014       .  S
O520        C530   1.278       .  A
O521        C530   1.277       .  A
O522      Cu1214   2.014   1_455  S
O522        C529   1.278       .  A
O523      Cu1214   1.994   1_445  S
O524        C527   1.278       .  A
Cu525      O1205   1.995   1_455  S
Cu525      O1208   2.014   1_455  S
Cu525      Cu698   2.378   1_456  S
Cu526      O1210   2.014       .  S
Cu526      O1211   1.994   1_565  S
Cu526      Cu697   2.378   1_565  S
C527        C630   1.465       .  S
C528        C606   1.465       .  S
C529        C558   1.466       .  S
C530        C534   1.466       .  S
N531        N532   1.324       .  A
N531        C535   1.347       .  A
N531       Cu539   2.084       .  S
N532        C533   1.345       .  A
N532       Cu538   2.073       .  S
C533        C534   1.380       .  A
C533        H536   1.082       .  S
C534        C535   1.383       .  A
C535        H537   1.082       .  S
Cu538       N541   2.073       .  S
Cu539       N549   2.084       .  S
Cu540       N542   2.070       .  S
Cu540       N548   2.070       .  S
N541        N542   1.321       .  A
N541        C545   1.346       .  A
N542        C543   1.345       .  A
C543        C544   1.383       .  A
C543        H546   1.082       .  S
C544        C590   1.470       .  S
C544        C545   1.384       .  A
C545        H547   1.082       .  S
N548        N549   1.322       .  A
N548        C552   1.342       .  A
N549        C550   1.347       .  A
C550        C551   1.390       .  A
C550        H553   1.082       .  S
C551        C679   1.485       .  S
C551        C552   1.385       .  A
C552        H554   1.081       .  S
N555        N556   1.324       .  A
N555        C559   1.347       .  A
N555       Cu563   2.084       .  S
N556        C557   1.345       .  A
N556       Cu562   2.073       .  S
C557        C558   1.380       .  A
C557        H560   1.082       .  S
C558        C559   1.383       .  A
C559        H561   1.082       .  S
Cu562       N565   2.073       .  S
Cu563       N573   2.084       .  S
Cu564       N566   2.070       .  S
Cu564       N572   2.070       .  S
N565        N566   1.321       .  A
N565        C569   1.346       .  A
N566        C567   1.345       .  A
C567        C568   1.383       .  A
C567        H570   1.082       .  S
C568        C589   1.470       .  S
C568        C569   1.384       .  A
C569        H571   1.082       .  S
N572        N573   1.322       .  A
N572        C576   1.342       .  A
N573        C574   1.347       .  A
C574        C575   1.390       .  A
C574        H577   1.082       .  S
C575        C676   1.485       .  S
C575        C576   1.385       .  A
C576        H578   1.081       .  S
O579       Cu587   2.021       .  S
O579        C589   1.279       .  A
O580       Cu587   2.003       .  S
O580        C590   1.277       .  A
O581       Cu587   2.011       .  S
O581        C591   1.277       .  A
O582       Cu587   2.007       .  S
O582        C592   1.276       .  A
O583       Cu588   2.011       .  S
O583        C592   1.277       .  A
O584       Cu588   2.007       .  S
O584        C591   1.276       .  A
O585       Cu588   2.022       .  S
O585        C590   1.279       .  A
O586       Cu588   2.003       .  S
O586        C589   1.277       .  A
Cu587      Cu588   2.377       .  S
C591        C620   1.463       .  S
C592        C596   1.463       .  S
N593        N594   1.323       .  A
N593        C597   1.347       .  A
N593       Cu601   2.078       .  S
N594        C595   1.343       .  A
N594       Cu600   2.071       .  S
C595        C596   1.379       .  A
C595        H598   1.082       .  S
C596        C597   1.383       .  A
C597        H599   1.082       .  S
Cu600       N603   2.070       .  S
Cu601       N611   2.077       .  S
Cu602       N604   2.062       .  S
Cu602       N610   2.062       .  S
N603        N604   1.321       .  A
N603        C607   1.346       .  A
N604        C605   1.342       .  A
C605        C606   1.380       .  A
C605        H608   1.082       .  S
C606        C607   1.383       .  A
C607        H609   1.082       .  S
N610        N611   1.320       .  A
N610        C614   1.342       .  A
N611        C612   1.344       .  A
C612        C613   1.390       .  A
C612        H615   1.081       .  S
C613        C652   1.487       .  S
C613        C614   1.387       .  A
C614        H616   1.081       .  S
N617        N618   1.323       .  A
N617        C621   1.347       .  A
N617       Cu625   2.078       .  S
N618        C619   1.343       .  A
N618       Cu624   2.071       .  S
C619        C620   1.379       .  A
C619        H622   1.082       .  S
C620        C621   1.383       .  A
C621        H623   1.082       .  S
Cu624       N627   2.071       .  S
Cu625       N635   2.077       .  S
Cu626       N628   2.062       .  S
Cu626       N634   2.062       .  S
N627        N628   1.321       .  A
N627        C631   1.346       .  A
N628        C629   1.342       .  A
C629        C630   1.380       .  A
C629        H632   1.082       .  S
C630        C631   1.383       .  A
C631        H633   1.082       .  S
N634        N635   1.320       .  A
N634        C638   1.342       .  A
N635        C636   1.344       .  A
C636        C637   1.390       .  A
C636        H639   1.081       .  S
C637        C655   1.487       .  S
C637        C638   1.387       .  A
C638        H640   1.081       .  S
C641        C642   1.398       .  A
C641        C646   1.403       .  A
C641        H657   1.083       .  S
C642        C643   1.404       .  A
C642        H658   1.084       .  S
C643       C1341   1.402       .  A
C643       C1332   1.410       .  A
C644       C1331   1.410   1_455  A
C644        C989   1.411   1_455  A
C645        C988   1.411   1_565  A
C645       C1335   1.410   1_565  A
C647       C1333   1.410   1_445  A
C647       C1344   1.402   1_445  A
C647        C648   1.404       .  A
C648        C649   1.398       .  A
C648        H659   1.084       .  S
C649        C650   1.403       .  A
C649        H660   1.083       .  S
C651        C652   1.408       .  A
C651        H661   1.082       .  S
C652        C653   1.409       .  A
C653       C1331   1.402   1_455  A
C653       H1350   1.082   1_455  S
C654        C655   1.408       .  A
C654        H663   1.082       .  S
C655        C656   1.409       .  A
C656       C1335   1.402   1_565  A
C656       H1352   1.082   1_565  S
H662       C1341   1.082       .  S
H664       C1344   1.082   1_445  S
C665        C666   1.399       .  A
C665        C670   1.403       .  A
C665        H681   1.083       .  S
C666        C667   1.404       .  A
C666        H682   1.084       .  S
C667        C677   1.402       .  A
C667        C668   1.410       .  A
C669        C671   1.410       .  A
C671        C680   1.402       .  A
C671        C672   1.404       .  A
C672        C673   1.399       .  A
C672        H683   1.084       .  S
C673        C674   1.403       .  A
C673        H684   1.083       .  S
C675        C676   1.407       .  A
C676        C677   1.408       .  A
C677        H686   1.083       .  S
C678        C679   1.407       .  A
C679        C680   1.408       .  A
C680        H688   1.083       .  S
O689       C1043   1.276       .  A
O690       Cu869   2.015   1_554  S
O690        C700   1.278       .  A
O691      Cu1213   2.009   1_554  S
O691        C701   1.277       .  A
O692        C702   1.278       .  A
O693      Cu1214   2.009   1_545  S
O693        C702   1.277       .  A
O694        C701   1.278       .  A
O695       C1044   1.276       .  A
O696       Cu870   2.015       .  S
O696        C699   1.278       .  A
Cu697       O862   2.015       .  S
Cu697      O1207   2.009   1_545  S
Cu698      O1209   2.009   1_554  S
Cu698       O868   2.015   1_554  S
C699       O1033   1.276       .  A
C699        C802   1.465       .  S
C700       O1039   1.276       .  A
C700        C778   1.465       .  S
C701        C730   1.466       .  S
C702        C706   1.466       .  S
N703        N704   1.324       .  A
N703        C707   1.347       .  A
N703       Cu711   2.084       .  S
N704        C705   1.345       .  A
N704       Cu710   2.073       .  S
C705        C706   1.380       .  A
C705        H708   1.082       .  S
C706        C707   1.383       .  A
C707        H709   1.082       .  S
Cu710       N713   2.073       .  S
Cu711       N721   2.084       .  S
Cu712       N714   2.070       .  S
Cu712       N720   2.070       .  S
N713        N714   1.321       .  A
N713        C717   1.346       .  A
N714        C715   1.345       .  A
C715        C716   1.383       .  A
C715        H718   1.082       .  S
C716        C762   1.470       .  S
C716        C717   1.384       .  A
C717        H719   1.082       .  S
N720        N721   1.322       .  A
N720        C724   1.342       .  A
N721        C722   1.347       .  A
C722        C723   1.390       .  A
C722        H725   1.082       .  S
C723        C851   1.485       .  S
C723        C724   1.385       .  A
C724        H726   1.081       .  S
N727        N728   1.324       .  A
N727        C731   1.347       .  A
N727       Cu735   2.084       .  S
N728        C729   1.345       .  A
N728       Cu734   2.073       .  S
C729        C730   1.380       .  A
C729        H732   1.082       .  S
C730        C731   1.383       .  A
C731        H733   1.082       .  S
Cu734       N737   2.073       .  S
Cu735       N745   2.084       .  S
Cu736       N738   2.070       .  S
Cu736       N744   2.070       .  S
N737        N738   1.321       .  A
N737        C741   1.346       .  A
N738        C739   1.345       .  A
C739        C740   1.383       .  A
C739        H742   1.082       .  S
C740        C761   1.470       .  S
C740        C741   1.384       .  A
C741        H743   1.082       .  S
N744        N745   1.322       .  A
N744        C748   1.342       .  A
N745        C746   1.347       .  A
C746        C747   1.390       .  A
C746        H749   1.082       .  S
C747        C848   1.485       .  S
C747        C748   1.385       .  A
C748        H750   1.081       .  S
O751       Cu759   2.021       .  S
O751        C761   1.279       .  A
O752       Cu759   2.003       .  S
O752        C762   1.277       .  A
O753       Cu759   2.011       .  S
O753        C763   1.277       .  A
O754       Cu759   2.007       .  S
O754        C764   1.276       .  A
O755       Cu760   2.011       .  S
O755        C764   1.277       .  A
O756       Cu760   2.007       .  S
O756        C763   1.276       .  A
O757       Cu760   2.022       .  S
O757        C762   1.279       .  A
O758       Cu760   2.003       .  S
O758        C761   1.277       .  A
Cu759      Cu760   2.377       .  S
C763        C792   1.463       .  S
C764        C768   1.463       .  S
N765        N766   1.323       .  A
N765        C769   1.347       .  A
N765       Cu773   2.078       .  S
N766        C767   1.343       .  A
N766       Cu772   2.071       .  S
C767        C768   1.379       .  A
C767        H770   1.082       .  S
C768        C769   1.383       .  A
C769        H771   1.082       .  S
Cu772       N775   2.070       .  S
Cu773       N783   2.077       .  S
Cu774       N776   2.062       .  S
Cu774       N782   2.062       .  S
N775        N776   1.321       .  A
N775        C779   1.346       .  A
N776        C777   1.342       .  A
C777        C778   1.380       .  A
C777        H780   1.082       .  S
C778        C779   1.383       .  A
C779        H781   1.082       .  S
N782        N783   1.320       .  A
N782        C786   1.342       .  A
N783        C784   1.344       .  A
C784        C785   1.390       .  A
C784        H787   1.081       .  S
C785        C824   1.487       .  S
C785        C786   1.387       .  A
C786        H788   1.081       .  S
N789        N790   1.323       .  A
N789        C793   1.347       .  A
N789       Cu797   2.078       .  S
N790        C791   1.343       .  A
N790       Cu796   2.071       .  S
C791        C792   1.379       .  A
C791        H794   1.082       .  S
C792        C793   1.383       .  A
C793        H795   1.082       .  S
Cu796       N799   2.071       .  S
Cu797       N807   2.077       .  S
Cu798       N800   2.062       .  S
Cu798       N806   2.062       .  S
N799        N800   1.321       .  A
N799        C803   1.346       .  A
N800        C801   1.342       .  A
C801        C802   1.380       .  A
C801        H804   1.082       .  S
C802        C803   1.383       .  A
C803        H805   1.082       .  S
N806        N807   1.320       .  A
N806        C810   1.342       .  A
N807        C808   1.344       .  A
C808        C809   1.390       .  A
C808        H811   1.081       .  S
C809        C827   1.487       .  S
C809        C810   1.387       .  A
C810        H812   1.081       .  S
C813        C814   1.398       .  A
C813        C818   1.403       .  A
C813        H829   1.083       .  S
C814        C815   1.404       .  A
C814        H830   1.084       .  S
C816       C1166   1.410       .  A
C817       C1162   1.410       .  A
C818       C1161   1.410       .  A
C818       C1170   1.402       .  A
C819        C820   1.404       .  A
C820        C821   1.398       .  A
C820        H831   1.084       .  S
C821        C822   1.403       .  A
C821        H832   1.083       .  S
C822       C1160   1.410       .  A
C822       C1167   1.402       .  A
C823       C1166   1.402       .  A
C823        C824   1.408       .  A
C823        H833   1.082       .  S
C824        C825   1.409       .  A
C826       C1162   1.402       .  A
C826        C827   1.408       .  A
C826        H835   1.082       .  S
C827        C828   1.409       .  A
C837        C838   1.399       .  A
C837        C842   1.403       .  A
C837        H853   1.083       .  S
C838        C839   1.404       .  A
C838        H854   1.084       .  S
C839        C849   1.402       .  A
C839        C840   1.410       .  A
C840       C1018   1.412   1_554  A
C840       C1013   1.412   1_554  A
C841       C1012   1.412       .  A
C841        C843   1.410       .  A
C841       C1014   1.412       .  A
C842       C1013   1.412   1_554  A
C842       C1022   1.404   1_554  A
C843        C852   1.402       .  A
C843        C844   1.404       .  A
C844        C845   1.399       .  A
C844        H855   1.084       .  S
C845        C846   1.403       .  A
C845        H856   1.083       .  S
C846       C1012   1.412       .  A
C846       C1019   1.404       .  A
C847       C1018   1.404   1_554  A
C847        C848   1.407       .  A
C847       H1029   1.083       .  S
C848        C849   1.408       .  A
C849        H858   1.083       .  S
C850       C1014   1.404       .  A
C850        C851   1.407       .  A
C850       H1031   1.083       .  S
C851        C852   1.408       .  A
C852        H860   1.083       .  S
H857       C1019   1.083       .  S
H859       C1022   1.083       .  S
O861       C1215   1.276       .  A
O862        C872   1.278       .  A
O863      Cu1041   2.009       .  S
O863        C873   1.277       .  A
O864        C874   1.278       .  A
O865      Cu1042   2.009   1_546  S
O865        C874   1.277       .  A
O866        C873   1.278       .  A
O867       C1216   1.276       .  A
O868        C871   1.278       .  A
Cu869      O1035   2.009   1_546  S
Cu870      O1037   2.009       .  S
C871       O1205   1.276       .  A
C871        C974   1.465       .  S
C872       O1211   1.276       .  A
C872        C950   1.465       .  S
C873        C902   1.466       .  S
C874        C878   1.466       .  S
N875        N876   1.324       .  A
N875        C879   1.347       .  A
N875       Cu883   2.084       .  S
N876        C877   1.345       .  A
N876       Cu882   2.073       .  S
C877        C878   1.380       .  A
C877        H880   1.082       .  S
C878        C879   1.383       .  A
C879        H881   1.082       .  S
Cu882       N885   2.073       .  S
Cu883       N893   2.084       .  S
Cu884       N886   2.070       .  S
Cu884       N892   2.070       .  S
N885        N886   1.321       .  A
N885        C889   1.346       .  A
N886        C887   1.345       .  A
C887        C888   1.383       .  A
C887        H890   1.082       .  S
C888        C934   1.470       .  S
C888        C889   1.384       .  A
C889        H891   1.082       .  S
N892        N893   1.322       .  A
N892        C896   1.342       .  A
N893        C894   1.347       .  A
C894        C895   1.390       .  A
C894        H897   1.082       .  S
C895       C1023   1.485       .  S
C895        C896   1.385       .  A
C896        H898   1.081       .  S
N899        N900   1.324       .  A
N899        C903   1.347       .  A
N899       Cu907   2.084       .  S
N900        C901   1.345       .  A
N900       Cu906   2.073       .  S
C901        C902   1.380       .  A
C901        H904   1.082       .  S
C902        C903   1.383       .  A
C903        H905   1.082       .  S
Cu906       N909   2.073       .  S
Cu907       N917   2.084       .  S
Cu908       N910   2.070       .  S
Cu908       N916   2.070       .  S
N909        N910   1.321       .  A
N909        C913   1.346       .  A
N910        C911   1.345       .  A
C911        C912   1.383       .  A
C911        H914   1.082       .  S
C912        C933   1.470       .  S
C912        C913   1.384       .  A
C913        H915   1.082       .  S
N916        N917   1.322       .  A
N916        C920   1.342       .  A
N917        C918   1.347       .  A
C918        C919   1.390       .  A
C918        H921   1.082       .  S
C919       C1020   1.485       .  S
C919        C920   1.385       .  A
C920        H922   1.081       .  S
O923       Cu931   2.021       .  S
O923        C933   1.279       .  A
O924       Cu931   2.003       .  S
O924        C934   1.277       .  A
O925       Cu931   2.011       .  S
O925        C935   1.277       .  A
O926       Cu931   2.007       .  S
O926        C936   1.276       .  A
O927       Cu932   2.011       .  S
O927        C936   1.277       .  A
O928       Cu932   2.007       .  S
O928        C935   1.276       .  A
O929       Cu932   2.022       .  S
O929        C934   1.279       .  A
O930       Cu932   2.003       .  S
O930        C933   1.277       .  A
Cu931      Cu932   2.377       .  S
C935        C964   1.463       .  S
C936        C940   1.463       .  S
N937        N938   1.323       .  A
N937        C941   1.347       .  A
N937       Cu945   2.078       .  S
N938        C939   1.343       .  A
N938       Cu944   2.071       .  S
C939        C940   1.379       .  A
C939        H942   1.082       .  S
C940        C941   1.383       .  A
C941        H943   1.082       .  S
Cu944       N947   2.070       .  S
Cu945       N955   2.077       .  S
Cu946       N948   2.062       .  S
Cu946       N954   2.062       .  S
N947        N948   1.321       .  A
N947        C951   1.346       .  A
N948        C949   1.342       .  A
C949        C950   1.380       .  A
C949        H952   1.082       .  S
C950        C951   1.383       .  A
C951        H953   1.082       .  S
N954        N955   1.320       .  A
N954        C958   1.342       .  A
N955        C956   1.344       .  A
C956        C957   1.390       .  A
C956        H959   1.081       .  S
C957        C996   1.487       .  S
C957        C958   1.387       .  A
C958        H960   1.081       .  S
N961        N962   1.323       .  A
N961        C965   1.347       .  A
N961       Cu969   2.078       .  S
N962        C963   1.343       .  A
N962       Cu968   2.071       .  S
C963        C964   1.379       .  A
C963        H966   1.082       .  S
C964        C965   1.383       .  A
C965        H967   1.082       .  S
Cu968       N971   2.071       .  S
Cu969       N979   2.077       .  S
Cu970       N972   2.062       .  S
Cu970       N978   2.062       .  S
N971        N972   1.321       .  A
N971        C975   1.346       .  A
N972        C973   1.342       .  A
C973        C974   1.380       .  A
C973        H976   1.082       .  S
C974        C975   1.383       .  A
C975        H977   1.082       .  S
N978        N979   1.320       .  A
N978        C982   1.342       .  A
N979        C980   1.344       .  A
C980        C981   1.390       .  A
C980        H983   1.081       .  S
C981        C999   1.487       .  S
C981        C982   1.387       .  A
C982        H984   1.081       .  S
C985        C986   1.398       .  A
C985        C990   1.403       .  A
C985       H1001   1.083       .  S
C986        C987   1.404       .  A
C986       H1002   1.084       .  S
C988       C1338   1.410       .  A
C989       C1334   1.410       .  A
C990       C1333   1.410       .  A
C990       C1342   1.402       .  A
C991        C992   1.404       .  A
C992        C993   1.398       .  A
C992       H1003   1.084       .  S
C993        C994   1.403       .  A
C993       H1004   1.083       .  S
C994       C1332   1.410       .  A
C994       C1339   1.402       .  A
C995       C1338   1.402       .  A
C995        C996   1.408       .  A
C995       H1005   1.082       .  S
C996        C997   1.409       .  A
C998       C1334   1.402       .  A
C998        C999   1.408       .  A
C998       H1007   1.082       .  S
C999       C1000   1.409       .  A
C1009      C1010   1.399       .  A
C1009      C1014   1.403       .  A
C1009      H1025   1.083       .  S
C1010      C1011   1.404       .  A
C1010      H1026   1.084       .  S
C1011      C1021   1.402       .  A
C1011      C1012   1.410       .  A
C1013      C1015   1.410       .  A
C1015      C1024   1.402       .  A
C1015      C1016   1.404       .  A
C1016      C1017   1.399       .  A
C1016      H1027   1.084       .  S
C1017      C1018   1.403       .  A
C1017      H1028   1.083       .  S
C1019      C1020   1.407       .  A
C1020      C1021   1.408       .  A
C1021      H1030   1.083       .  S
C1022      C1023   1.407       .  A
C1023      C1024   1.408       .  A
C1024      H1032   1.083       .  S
O1034     Cu1213   2.015   1_554  S
O1034      C1044   1.278       .  A
O1035      C1045   1.277       .  A
O1036      C1046   1.278       .  A
O1037      C1046   1.277       .  A
O1038      C1045   1.278       .  A
O1040     Cu1214   2.015       .  S
O1040      C1043   1.278       .  A
Cu1041     O1206   2.015       .  S
Cu1042     O1212   2.015   1_554  S
C1043      C1146   1.465       .  S
C1044      C1122   1.465       .  S
C1045      C1074   1.466       .  S
C1046      C1050   1.466       .  S
N1047      N1048   1.324       .  A
N1047      C1051   1.347       .  A
N1047     Cu1055   2.084       .  S
N1048      C1049   1.345       .  A
N1048     Cu1054   2.073       .  S
C1049      C1050   1.380       .  A
C1049      H1052   1.082       .  S
C1050      C1051   1.383       .  A
C1051      H1053   1.082       .  S
Cu1054     N1057   2.073       .  S
Cu1055     N1065   2.084       .  S
Cu1056     N1058   2.070       .  S
Cu1056     N1064   2.070       .  S
N1057      N1058   1.321       .  A
N1057      C1061   1.346       .  A
N1058      C1059   1.345       .  A
C1059      C1060   1.383       .  A
C1059      H1062   1.082       .  S
C1060      C1106   1.470       .  S
C1060      C1061   1.384       .  A
C1061      H1063   1.082       .  S
N1064      N1065   1.322       .  A
N1064      C1068   1.342       .  A
N1065      C1066   1.347       .  A
C1066      C1067   1.390       .  A
C1066      H1069   1.082       .  S
C1067      C1195   1.485       .  S
C1067      C1068   1.385       .  A
C1068      H1070   1.081       .  S
N1071      N1072   1.324       .  A
N1071      C1075   1.347       .  A
N1071     Cu1079   2.084       .  S
N1072      C1073   1.345       .  A
N1072     Cu1078   2.073       .  S
C1073      C1074   1.380       .  A
C1073      H1076   1.082       .  S
C1074      C1075   1.383       .  A
C1075      H1077   1.082       .  S
Cu1078     N1081   2.073       .  S
Cu1079     N1089   2.084       .  S
Cu1080     N1082   2.070       .  S
Cu1080     N1088   2.070       .  S
N1081      N1082   1.321       .  A
N1081      C1085   1.346       .  A
N1082      C1083   1.345       .  A
C1083      C1084   1.383       .  A
C1083      H1086   1.082       .  S
C1084      C1105   1.470       .  S
C1084      C1085   1.384       .  A
C1085      H1087   1.082       .  S
N1088      N1089   1.322       .  A
N1088      C1092   1.342       .  A
N1089      C1090   1.347       .  A
C1090      C1091   1.390       .  A
C1090      H1093   1.082       .  S
C1091      C1192   1.485       .  S
C1091      C1092   1.385       .  A
C1092      H1094   1.081       .  S
O1095     Cu1103   2.021       .  S
O1095      C1105   1.279       .  A
O1096     Cu1103   2.003       .  S
O1096      C1106   1.277       .  A
O1097     Cu1103   2.011       .  S
O1097      C1107   1.277       .  A
O1098     Cu1103   2.007       .  S
O1098      C1108   1.276       .  A
O1099     Cu1104   2.011       .  S
O1099      C1108   1.277       .  A
O1100     Cu1104   2.007       .  S
O1100      C1107   1.276       .  A
O1101     Cu1104   2.022       .  S
O1101      C1106   1.279       .  A
O1102     Cu1104   2.003       .  S
O1102      C1105   1.277       .  A
Cu1103    Cu1104   2.377       .  S
C1107      C1136   1.463       .  S
C1108      C1112   1.463       .  S
N1109      N1110   1.323       .  A
N1109      C1113   1.347       .  A
N1109     Cu1117   2.078       .  S
N1110      C1111   1.343       .  A
N1110     Cu1116   2.071       .  S
C1111      C1112   1.379       .  A
C1111      H1114   1.082       .  S
C1112      C1113   1.383       .  A
C1113      H1115   1.082       .  S
Cu1116     N1119   2.070       .  S
Cu1117     N1127   2.077       .  S
Cu1118     N1120   2.062       .  S
Cu1118     N1126   2.062       .  S
N1119      N1120   1.321       .  A
N1119      C1123   1.346       .  A
N1120      C1121   1.342       .  A
C1121      C1122   1.380       .  A
C1121      H1124   1.082       .  S
C1122      C1123   1.383       .  A
C1123      H1125   1.082       .  S
N1126      N1127   1.320       .  A
N1126      C1130   1.342       .  A
N1127      C1128   1.344       .  A
C1128      C1129   1.390       .  A
C1128      H1131   1.081       .  S
C1129      C1168   1.487       .  S
C1129      C1130   1.387       .  A
C1130      H1132   1.081       .  S
N1133      N1134   1.323       .  A
N1133      C1137   1.347       .  A
N1133     Cu1141   2.078       .  S
N1134      C1135   1.343       .  A
N1134     Cu1140   2.071       .  S
C1135      C1136   1.379       .  A
C1135      H1138   1.082       .  S
C1136      C1137   1.383       .  A
C1137      H1139   1.082       .  S
Cu1140     N1143   2.071       .  S
Cu1141     N1151   2.077       .  S
Cu1142     N1144   2.062       .  S
Cu1142     N1150   2.062       .  S
N1143      N1144   1.321       .  A
N1143      C1147   1.346       .  A
N1144      C1145   1.342       .  A
C1145      C1146   1.380       .  A
C1145      H1148   1.082       .  S
C1146      C1147   1.383       .  A
C1147      H1149   1.082       .  S
N1150      N1151   1.320       .  A
N1150      C1154   1.342       .  A
N1151      C1152   1.344       .  A
C1152      C1153   1.390       .  A
C1152      H1155   1.081       .  S
C1153      C1171   1.487       .  S
C1153      C1154   1.387       .  A
C1154      H1156   1.081       .  S
C1157      C1158   1.398       .  A
C1157      C1162   1.403       .  A
C1157      H1173   1.083       .  S
C1158      C1159   1.404       .  A
C1158      H1174   1.084       .  S
C1163      C1164   1.404       .  A
C1164      C1165   1.398       .  A
C1164      H1175   1.084       .  S
C1165      C1166   1.403       .  A
C1165      H1176   1.083       .  S
C1167      C1168   1.408       .  A
C1167      H1177   1.082       .  S
C1168      C1169   1.409       .  A
C1170      C1171   1.408       .  A
C1170      H1179   1.082       .  S
C1171      C1172   1.409       .  A
C1181      C1182   1.399       .  A
C1181      C1186   1.403       .  A
C1181      H1197   1.083       .  S
C1182      C1183   1.404       .  A
C1182      H1198   1.084       .  S
C1183      C1193   1.402       .  A
C1183      C1184   1.410       .  A
C1184      C1362   1.412   1_554  A
C1184      C1357   1.412   1_554  A
C1185      C1356   1.412       .  A
C1185      C1187   1.410       .  A
C1185      C1358   1.412       .  A
C1186      C1357   1.412   1_554  A
C1186      C1366   1.404   1_554  A
C1187      C1196   1.402       .  A
C1187      C1188   1.404       .  A
C1188      C1189   1.399       .  A
C1188      H1199   1.084       .  S
C1189      C1190   1.403       .  A
C1189      H1200   1.083       .  S
C1190      C1356   1.412       .  A
C1190      C1363   1.404       .  A
C1191      C1362   1.404   1_554  A
C1191      C1192   1.407       .  A
C1191      H1373   1.083       .  S
C1192      C1193   1.408       .  A
C1193      H1202   1.083       .  S
C1194      C1358   1.404       .  A
C1194      C1195   1.407       .  A
C1194      H1375   1.083       .  S
C1195      C1196   1.408       .  A
C1196      H1204   1.083       .  S
H1201      C1363   1.083       .  S
H1203      C1366   1.083       .  S
O1206      C1216   1.278       .  A
O1207      C1217   1.277       .  A
O1208      C1218   1.278       .  A
O1209      C1218   1.277       .  A
O1210      C1217   1.278       .  A
O1212      C1215   1.278       .  A
C1215      C1318   1.465       .  S
C1216      C1294   1.465       .  S
C1217      C1246   1.466       .  S
C1218      C1222   1.466       .  S
N1219      N1220   1.324       .  A
N1219      C1223   1.347       .  A
N1219     Cu1227   2.084       .  S
N1220      C1221   1.345       .  A
N1220     Cu1226   2.073       .  S
C1221      C1222   1.380       .  A
C1221      H1224   1.082       .  S
C1222      C1223   1.383       .  A
C1223      H1225   1.082       .  S
Cu1226     N1229   2.073       .  S
Cu1227     N1237   2.084       .  S
Cu1228     N1230   2.070       .  S
Cu1228     N1236   2.070       .  S
N1229      N1230   1.321       .  A
N1229      C1233   1.346       .  A
N1230      C1231   1.345       .  A
C1231      C1232   1.383       .  A
C1231      H1234   1.082       .  S
C1232      C1278   1.470       .  S
C1232      C1233   1.384       .  A
C1233      H1235   1.082       .  S
N1236      N1237   1.322       .  A
N1236      C1240   1.342       .  A
N1237      C1238   1.347       .  A
C1238      C1239   1.390       .  A
C1238      H1241   1.082       .  S
C1239      C1367   1.485       .  S
C1239      C1240   1.385       .  A
C1240      H1242   1.081       .  S
N1243      N1244   1.324       .  A
N1243      C1247   1.347       .  A
N1243     Cu1251   2.084       .  S
N1244      C1245   1.345       .  A
N1244     Cu1250   2.073       .  S
C1245      C1246   1.380       .  A
C1245      H1248   1.082       .  S
C1246      C1247   1.383       .  A
C1247      H1249   1.082       .  S
Cu1250     N1253   2.073       .  S
Cu1251     N1261   2.084       .  S
Cu1252     N1254   2.070       .  S
Cu1252     N1260   2.070       .  S
N1253      N1254   1.321       .  A
N1253      C1257   1.346       .  A
N1254      C1255   1.345       .  A
C1255      C1256   1.383       .  A
C1255      H1258   1.082       .  S
C1256      C1277   1.470       .  S
C1256      C1257   1.384       .  A
C1257      H1259   1.082       .  S
N1260      N1261   1.322       .  A
N1260      C1264   1.342       .  A
N1261      C1262   1.347       .  A
C1262      C1263   1.390       .  A
C1262      H1265   1.082       .  S
C1263      C1364   1.485       .  S
C1263      C1264   1.385       .  A
C1264      H1266   1.081       .  S
O1267     Cu1275   2.021       .  S
O1267      C1277   1.279       .  A
O1268     Cu1275   2.003       .  S
O1268      C1278   1.277       .  A
O1269     Cu1275   2.011       .  S
O1269      C1279   1.277       .  A
O1270     Cu1275   2.007       .  S
O1270      C1280   1.276       .  A
O1271     Cu1276   2.011       .  S
O1271      C1280   1.277       .  A
O1272     Cu1276   2.007       .  S
O1272      C1279   1.276       .  A
O1273     Cu1276   2.022       .  S
O1273      C1278   1.279       .  A
O1274     Cu1276   2.003       .  S
O1274      C1277   1.277       .  A
Cu1275    Cu1276   2.377       .  S
C1279      C1308   1.463       .  S
C1280      C1284   1.463       .  S
N1281      N1282   1.323       .  A
N1281      C1285   1.347       .  A
N1281     Cu1289   2.078       .  S
N1282      C1283   1.343       .  A
N1282     Cu1288   2.071       .  S
C1283      C1284   1.379       .  A
C1283      H1286   1.082       .  S
C1284      C1285   1.383       .  A
C1285      H1287   1.082       .  S
Cu1288     N1291   2.070       .  S
Cu1289     N1299   2.077       .  S
Cu1290     N1292   2.062       .  S
Cu1290     N1298   2.062       .  S
N1291      N1292   1.321       .  A
N1291      C1295   1.346       .  A
N1292      C1293   1.342       .  A
C1293      C1294   1.380       .  A
C1293      H1296   1.082       .  S
C1294      C1295   1.383       .  A
C1295      H1297   1.082       .  S
N1298      N1299   1.320       .  A
N1298      C1302   1.342       .  A
N1299      C1300   1.344       .  A
C1300      C1301   1.390       .  A
C1300      H1303   1.081       .  S
C1301      C1340   1.487       .  S
C1301      C1302   1.387       .  A
C1302      H1304   1.081       .  S
N1305      N1306   1.323       .  A
N1305      C1309   1.347       .  A
N1305     Cu1313   2.078       .  S
N1306      C1307   1.343       .  A
N1306     Cu1312   2.071       .  S
C1307      C1308   1.379       .  A
C1307      H1310   1.082       .  S
C1308      C1309   1.383       .  A
C1309      H1311   1.082       .  S
Cu1312     N1315   2.071       .  S
Cu1313     N1323   2.077       .  S
Cu1314     N1316   2.062       .  S
Cu1314     N1322   2.062       .  S
N1315      N1316   1.321       .  A
N1315      C1319   1.346       .  A
N1316      C1317   1.342       .  A
C1317      C1318   1.380       .  A
C1317      H1320   1.082       .  S
C1318      C1319   1.383       .  A
C1319      H1321   1.082       .  S
N1322      N1323   1.320       .  A
N1322      C1326   1.342       .  A
N1323      C1324   1.344       .  A
C1324      C1325   1.390       .  A
C1324      H1327   1.081       .  S
C1325      C1343   1.487       .  S
C1325      C1326   1.387       .  A
C1326      H1328   1.081       .  S
C1329      C1330   1.398       .  A
C1329      C1334   1.403       .  A
C1329      H1345   1.083       .  S
C1330      C1331   1.404       .  A
C1330      H1346   1.084       .  S
C1335      C1336   1.404       .  A
C1336      C1337   1.398       .  A
C1336      H1347   1.084       .  S
C1337      C1338   1.403       .  A
C1337      H1348   1.083       .  S
C1339      C1340   1.408       .  A
C1339      H1349   1.082       .  S
C1340      C1341   1.409       .  A
C1342      C1343   1.408       .  A
C1342      H1351   1.082       .  S
C1343      C1344   1.409       .  A
C1353      C1354   1.399       .  A
C1353      C1358   1.403       .  A
C1353      H1369   1.083       .  S
C1354      C1355   1.404       .  A
C1354      H1370   1.084       .  S
C1355      C1365   1.402       .  A
C1355      C1356   1.410       .  A
C1357      C1359   1.410       .  A
C1359      C1368   1.402       .  A
C1359      C1360   1.404       .  A
C1360      C1361   1.399       .  A
C1360      H1371   1.084       .  S
C1361      C1362   1.403       .  A
C1361      H1372   1.083       .  S
C1363      C1364   1.407       .  A
C1364      C1365   1.408       .  A
C1365      H1374   1.083       .  S
C1366      C1367   1.407       .  A
C1367      C1368   1.408       .  A
C1368      H1376   1.083       .  S
