geometry optimzed in LAMMPS
_audit_creation_date              2020-11-30 
_audit_creation_method            'lammps2cif' 
_symmetry_space_group_name_H-M    'P1' 
_symmetry_Int_Tables_number       1 
_symmetry_cell_setting            triclinic 
loop_ 
_symmetry_equiv_pos_as_xyz 
  x,y,z 
_cell_length_a                    66.5819586 
_cell_length_b                    66.62480149638486 
_cell_length_c                    66.4970671438888 
_cell_angle_alpha                 90.08626049620476 
_cell_angle_beta                  89.9718798942177 
_cell_angle_gamma                 90.06609229714999 
loop_ 
_atom_site_label 
_atom_site_type_symbol 
_atom_site_fract_x 
_atom_site_fract_y 
_atom_site_fract_z 
_atom_site_charge 
O1          O  0.75878247  0.37982487  0.35454837    -0.58100
C2          C  0.79781222  0.38125771  0.40588839     0.74500
O3          O  0.73700988  0.35045688  0.40952319    -0.59300
C4          C  0.74400506  0.36893483  0.34930455     0.74500
C5          C  0.78848455  0.32609325  0.37497376     0.76900
Cd6        Cd  0.76522225  0.36076558  0.38622910     1.37500
O7          O  0.78658245  0.39099693  0.39393323    -0.58100
O8          O  0.78868298  0.34250363  0.36539794    -0.56900
C9          C  0.73498102  0.36806229  0.41663213     0.76800
O10         O  0.77652247  0.32502604  0.38986508    -0.59300
O11         O  0.79409844  0.36273934  0.40784737    -0.57800
O12         O  0.73947618  0.35467110  0.36101579    -0.57800
O13         O  0.74674359  0.38127506  0.40976957    -0.56900
O14         O  0.65671958  0.38784218  0.47461565    -0.58100
C15         C  0.60664606  0.40904616  0.51649570     0.74500
O16         O  0.66653485  0.42728971  0.52573407    -0.59300
C17         C  0.67387783  0.39593610  0.47202907     0.74500
C18         C  0.63408521  0.44653468  0.46897583     0.76900
Cd19       Cd  0.64474962  0.41572719  0.49729640     1.37500
O20         O  0.61376370  0.39588740  0.50453398    -0.58100
O21         O  0.62798785  0.42854014  0.46778431    -0.56900
C22         C  0.66690306  0.40989199  0.53366921     0.76800
O23         O  0.64500273  0.45090708  0.48408378    -0.59300
O24         O  0.61670157  0.42511024  0.51844380    -0.57800
O25         O  0.67694242  0.41233763  0.48117033    -0.57800
O26         O  0.65686017  0.39629034  0.52491880    -0.56900
O27         O  0.76162895  0.38262923  0.64439580    -0.58100
C28         C  0.72235435  0.38255365  0.59351571     0.74500
O29         O  0.78303162  0.34832047  0.59291967    -0.59300
C30         C  0.77723330  0.37269463  0.64901822     0.74500
C31         C  0.72943986  0.32868517  0.62530320     0.76900
Cd32       Cd  0.75445156  0.36191568  0.61363676     1.37500
O33         O  0.73433597  0.39263831  0.60449321    -0.58100
O34         O  0.73116449  0.34458028  0.63562096    -0.56900
C35         C  0.78445896  0.36421218  0.58250676     0.76800
O36         O  0.74092922  0.32708829  0.61012798    -0.59300
O37         O  0.72528068  0.36383678  0.59270615    -0.57800
O38         O  0.78175481  0.35829150  0.63746756    -0.57800
O39         O  0.77201133  0.37799368  0.58636863    -0.56900
O40         O  0.86385771  0.38194389  0.52568897    -0.58100
C41         C  0.91355023  0.40252740  0.48551437     0.74500
O42         O  0.85329631  0.42416254  0.47523405    -0.59300
C43         C  0.84607625  0.38876647  0.52715164     0.74500
C44         C  0.88410155  0.44065905  0.53272311     0.76900
Cd45       Cd  0.87494415  0.41044711  0.50321214     1.37500
O46         O  0.90500480  0.38916461  0.49618448    -0.58100
O47         O  0.89022142  0.42270158  0.53361418    -0.56900
C48         C  0.85353712  0.40753588  0.46576391     0.76800
O49         O  0.87392324  0.44539879  0.51725236    -0.59300
O50         O  0.90481696  0.41939474  0.48447904    -0.57800
O51         O  0.84232916  0.40461454  0.51741991    -0.57800
O52         O  0.86394271  0.39362865  0.47341983    -0.56900
O53         O  0.37661820  0.36934982  0.74249650    -0.58100
C54         C  0.38253238  0.41803822  0.77862772     0.74500
O55         O  0.34451008  0.43154792  0.73442416    -0.59300
C56         C  0.36390051  0.36183701  0.73036952     0.74500
C57         C  0.32023508  0.39067866  0.77328519     0.76900
Cd58       Cd  0.35557588  0.39948317  0.74991207     1.37500
O59         O  0.38660659  0.41832884  0.76004791    -0.58100
O60         O  0.33384270  0.37797110  0.76965908    -0.56900
C61         C  0.35265436  0.42811633  0.71754939     0.76800
O62         O  0.32202032  0.40760453  0.76475106    -0.59300
O63         O  0.36804106  0.40694644  0.78375248    -0.57800
O64         O  0.34782677  0.37163142  0.72783838    -0.57800
O65         O  0.36079510  0.41114213  0.71539288    -0.56900
O66         O  0.38192823  0.50969915  0.88480778    -0.58100
C67         C  0.37413591  0.54263982  0.82975056     0.74500
O68         O  0.43527736  0.53453559  0.84955537    -0.59300
C69         C  0.39651440  0.50021915  0.89264336     0.74500
C70         C  0.40251217  0.48261100  0.83117959     0.76900
Cd71       Cd  0.40117414  0.51915950  0.85404073     1.37500
O72         O  0.37320670  0.54366426  0.84877620    -0.58100
O73         O  0.38840312  0.48692896  0.84321677    -0.56900
C74         C  0.43184369  0.54868571  0.86190271     0.76800
O75         O  0.41674979  0.49526889  0.82971845    -0.59300
O76         O  0.38632444  0.53005418  0.82251388    -0.57800
O77         O  0.41285218  0.50027359  0.88289675    -0.57800
O78         O  0.41470558  0.54878982  0.87006913    -0.56900
O79         O  0.37955232  0.48303344  0.64136760    -0.58100
C80         C  0.39468139  0.52805920  0.59859058     0.74500
O81         O  0.41830868  0.53288508  0.66423725    -0.59300
C82         C  0.37667270  0.48634052  0.65988058     0.74500
C83         C  0.43745743  0.48421766  0.62848760     0.76900
Cd84       Cd  0.40416628  0.51094616  0.63705355     1.37500
O85         O  0.38125355  0.51898003  0.60866282    -0.58100
O86         O  0.42149888  0.48494081  0.61829938    -0.56900
C87         C  0.40683201  0.54754800  0.66019682     0.76800
O88         O  0.43865960  0.49641130  0.64311066    -0.59300
O89         O  0.41203151  0.52888745  0.60636462    -0.57800
O90         O  0.38510294  0.50170468  0.66706552    -0.57800
O91         O  0.39543471  0.54542322  0.64512529    -0.56900
O92         O  0.37823384  0.65788543  0.74829897    -0.58100
C93         C  0.38454051  0.61100541  0.71318689     0.74500
O94         O  0.35497363  0.61836866  0.77515303    -0.59300
C95         C  0.36553890  0.66651179  0.75964875     0.74500
C96         C  0.32189982  0.63702455  0.71330984     0.76900
Cd97       Cd  0.35550934  0.62931378  0.73971036     1.37500
O98         O  0.38614665  0.60914840  0.73204423    -0.58100
O99         O  0.33465675  0.65021679  0.71815420    -0.56900
C100        C  0.35002034  0.60038649  0.77169186     0.76800
O101        O  0.32345441  0.62025166  0.72213062    -0.59300
O102        O  0.37167342  0.62352396  0.70714500    -0.57800
O103        O  0.34849663  0.65817653  0.76112654    -0.57800
O104        O  0.34569348  0.59617749  0.75363987    -0.56900
O105        O  0.47761246  0.65723922  0.37024390    -0.58100
C106        C  0.51928122  0.60707912  0.39065325     0.74500
O107        O  0.53009770  0.66645852  0.41084094    -0.59300
C108        C  0.47707484  0.67513486  0.37698700     0.74500
C109        C  0.47316085  0.63712189  0.42948485     0.76900
Cd110      Cd  0.50131808  0.64584761  0.39779826     1.37500
O111        O  0.50850205  0.61516539  0.37707975    -0.58100
O112        O  0.47213456  0.62962051  0.41200455    -0.56900
C113        C  0.53886230  0.66674707  0.39381813     0.76800
O114        O  0.48788399  0.64880424  0.43293872    -0.59300
O115        O  0.52036683  0.61634375  0.40728188    -0.57800
O116        O  0.48775976  0.67871044  0.39228675    -0.57800
O117        O  0.53038264  0.65720100  0.37969230    -0.56900
O118        O  0.65025472  0.76138373  0.36788811    -0.58100
C119        C  0.60044024  0.72093744  0.36859768     0.74500
O120        O  0.59541232  0.78247929  0.33751146    -0.59300
C121        C  0.65415451  0.77755184  0.35853968     0.74500
C122        C  0.62962821  0.73372773  0.31238045     0.76900
Cd123      Cd  0.61848331  0.75482947  0.34861068     1.37500
O124        O  0.61099599  0.73316864  0.37878631    -0.58100
O125        O  0.64144184  0.73611561  0.32710955    -0.56900
C126        C  0.58725051  0.78425377  0.35467946     0.76800
O127        O  0.61280264  0.74262783  0.31350915    -0.59300
O128        O  0.59963352  0.72398016  0.34987273    -0.57800
O129        O  0.64162752  0.78277214  0.34523686    -0.57800
O130        O  0.59314719  0.77224026  0.36811708    -0.56900
O131        O  0.53202395  0.86445781  0.37253381    -0.58100
C132        C  0.49367240  0.91664054  0.39305036     0.74500
O133        O  0.48122325  0.85719995  0.41247248    -0.59300
C134        C  0.53417391  0.84747497  0.38104597     0.74500
C135        C  0.53960625  0.88721060  0.43100911     0.76900
Cd136      Cd  0.51042636  0.87772807  0.40055932     1.37500
O137        O  0.50505834  0.90841846  0.38003214    -0.58100
O138        O  0.54059922  0.89347047  0.41304822    -0.56900
C139        C  0.47296637  0.85696511  0.39518765     0.76800
O140        O  0.52424055  0.87677399  0.43559394    -0.59300
O141        O  0.49132737  0.90731961  0.40951319    -0.57800
O142        O  0.52541077  0.84518473  0.39777245    -0.57800
O143        O  0.48180840  0.86664468  0.38139746    -0.56900
O144        O  0.36173509  0.76291967  0.37111632    -0.58100
C145        C  0.41117965  0.80283712  0.36901393     0.74500
O146        O  0.41184565  0.73883704  0.33724053    -0.59300
C147        C  0.35545128  0.74831699  0.36052465     0.74500
C148        C  0.38311000  0.79085562  0.31276152     0.76900
Cd149      Cd  0.39225691  0.76906136  0.34909059     1.37500
O150        O  0.40157018  0.79002372  0.37939993    -0.58100
O151        O  0.37075922  0.78880354  0.32710839    -0.56900
C152        C  0.42274028  0.73814056  0.35284683     0.76800
O153        O  0.39950326  0.78126807  0.31427625    -0.59300
O154        O  0.41061087  0.80049764  0.35017726    -0.57800
O155        O  0.36580961  0.74413984  0.34513881    -0.57800
O156        O  0.41974376  0.75170843  0.36577930    -0.56900
O157        O  0.15435902  0.76265110  0.13064165    -0.58100
C158        C  0.09351229  0.73299927  0.13011532     0.74500
O159        O  0.12156703  0.74558466  0.18565737    -0.59300
C160        C  0.16145121  0.77581173  0.14260450     0.74500
C161        C  0.10068129  0.79429306  0.14333235     0.76900
Cd162      Cd  0.12274577  0.75808428  0.15008649     1.37500
O163        O  0.11059923  0.73560813  0.12189283    -0.58100
O164        O  0.11001629  0.78470627  0.12978976    -0.56900
C165        C  0.13301544  0.73074909  0.18190875     0.76800
O166        O  0.10175130  0.78733440  0.16114279    -0.59300
O167        O  0.09077503  0.74170653  0.14682030    -0.57800
O168        O  0.15085686  0.78004929  0.15788342    -0.57800
O169        O  0.13964616  0.72937353  0.16410528    -0.56900
O170        O  0.00905390  0.61528826  0.11952249    -0.58100
C171        C  0.96851301  0.66499720  0.11956443     0.74500
O172        O  0.02994044  0.66921795  0.08692792    -0.59300
C173        C  0.02491680  0.61114882  0.10972825     0.74500
C174        C  0.97888874  0.63513793  0.06423835     0.76900
Cd175      Cd  0.00193633  0.64643817  0.09921373     1.37500
O176        O  0.98164766  0.65576744  0.12986327    -0.58100
O177        O  0.98140648  0.62351156  0.07908185    -0.56900
C178        C  0.03136097  0.67827529  0.10369115     0.76800
O179        O  0.98875144  0.65147909  0.06453230    -0.59300
O180        O  0.97051303  0.66427802  0.10069747    -0.57800
O181        O  0.02942779  0.62300985  0.09558608    -0.57800
O182        O  0.01911120  0.67290871  0.11716637    -0.56900
O183        O  0.90388933  0.78502259  0.11939306    -0.58100
C184        C  0.85311750  0.74524195  0.13857486     0.74500
O185        O  0.91139509  0.73416798  0.16113200    -0.59300
C186        C  0.92104423  0.78736942  0.12751995     0.74500
C187        C  0.88099932  0.79157322  0.17829661     0.76900
Cd188      Cd  0.89145137  0.76297124  0.14743025     1.37500
O189        O  0.86142425  0.75690659  0.12589918    -0.58100
O190        O  0.87373341  0.79206275  0.16070567    -0.56900
C191        C  0.91332437  0.72604623  0.14389255     0.76800
O192        O  0.89281155  0.77710489  0.18220708    -0.59300
O193        O  0.86225515  0.74272665  0.15510641    -0.57800
O194        O  0.92386425  0.77841011  0.14403297    -0.57800
O195        O  0.90493107  0.73484947  0.12928585    -0.56900
O196        O  0.00597328  0.90461869  0.11356097    -0.58100
C197        C  0.04551937  0.85364592  0.11455658     0.74500
O198        O  0.98453832  0.85016267  0.08329932    -0.59300
C199        C  0.99094673  0.90949332  0.10285934     0.74500
C200        C  0.03631929  0.88413108  0.05931758     0.76900
Cd201      Cd  0.01282746  0.87310206  0.09413143     1.37500
O202        O  0.03468042  0.86604494  0.12423610    -0.58100
O203        O  0.03553435  0.89454826  0.07523882    -0.56900
C204        C  0.98252630  0.84253643  0.10068840     0.76800
O205        O  0.02500107  0.86875779  0.05867353    -0.59300
O206        O  0.04139368  0.85123341  0.09615470    -0.57800
O207        O  0.98655979  0.89770785  0.08857001    -0.57800
O208        O  0.99431868  0.84898041  0.11411618    -0.56900
O209        O  0.40362478  0.29258081  0.62014291    -0.58100
C210        C  0.35351439  0.24910008  0.63859250     0.74500
O211        O  0.41212431  0.23909700  0.65716164    -0.59300
C212        C  0.41940729  0.29676518  0.63016593     0.74500
C213        C  0.38028066  0.29432669  0.67885752     0.76900
Cd214      Cd  0.39128561  0.26840774  0.64649693     1.37500
O215        O  0.36048416  0.26164657  0.62592187    -0.58100
O216        O  0.37281298  0.29562978  0.66137210    -0.56900
C217        C  0.41525477  0.23378647  0.63902544     0.76800
O218        O  0.39252668  0.28001136  0.68199546    -0.59300
O219        O  0.36364205  0.24657329  0.65452484    -0.57800
O220        O  0.42165671  0.28765839  0.64669953    -0.57800
O221        O  0.40698727  0.24422136  0.62545913    -0.56900
O222        O  0.50821652  0.11766709  0.61662581    -0.58100
C223        C  0.47120205  0.17285515  0.61365976     0.74500
O224        O  0.53046000  0.17208744  0.58705409    -0.59300
C225        C  0.52279192  0.11198279  0.60562041     0.74500
C226        C  0.47899187  0.13731332  0.56205461     0.76900
Cd227      Cd  0.50231728  0.14878318  0.59653078     1.37500
O228        O  0.47751011  0.15783003  0.62362508    -0.58100
O229        O  0.47828638  0.12811101  0.57869247    -0.56900
C230        C  0.53415284  0.17661456  0.60528392     0.76800
O231        O  0.49159017  0.15160658  0.56066970    -0.59300
O232        O  0.47917625  0.17581366  0.59666581    -0.57800
O233        O  0.52705600  0.12303671  0.59071274    -0.57800
O234        O  0.52361553  0.16792189  0.61850902    -0.56900
O235        O  0.65262106  0.26681158  0.62942012    -0.58100
C236        C  0.59425054  0.23333078  0.63258115     0.74500
O237        O  0.62193343  0.24812291  0.68591705    -0.59300
C238        C  0.66054206  0.27879253  0.64207862     0.74500
C239        C  0.59867718  0.29639419  0.64448969     0.76900
Cd240      Cd  0.62221663  0.26085529  0.65057937     1.37500
O241        O  0.61018894  0.23799917  0.62307329    -0.58100
O242        O  0.60726737  0.28662224  0.63060348    -0.56900
C243        C  0.63345066  0.23343610  0.68177164     0.76800
O244        O  0.60109234  0.28989046  0.66232755    -0.59300
O245        O  0.59177718  0.24151396  0.64959124    -0.57800
O246        O  0.65097236  0.28159936  0.65833024    -0.57800
O247        O  0.64014177  0.23255382  0.66394976    -0.56900
O248        O  0.50545208  0.41289152  0.62245973    -0.58100
C249        C  0.54369411  0.35836712  0.61976191     0.74500
O250        O  0.48571844  0.35910840  0.58996862    -0.59300
C251        C  0.49233398  0.41957401  0.61029425     0.74500
C252        C  0.53919706  0.39411770  0.56919468     0.76900
Cd253      Cd  0.51307578  0.38258404  0.60164761     1.37500
O254        O  0.53582354  0.37237674  0.63014077    -0.58100
O255        O  0.54002692  0.40197773  0.58654925    -0.56900
C256        C  0.48080081  0.35433885  0.60783101     0.76800
O257        O  0.52509925  0.38155710  0.56613308    -0.59300
O258        O  0.53731841  0.35624363  0.60197772    -0.57800
O259        O  0.48961203  0.40949322  0.59434560    -0.57800
O260        O  0.49051248  0.36280178  0.62182505    -0.56900
O261        O  0.38711700  0.11557457  0.27179144    -0.58100
C262        C  0.36879290  0.16692957  0.23200226     0.74500
O263        O  0.34878726  0.10720086  0.21889695    -0.59300
C264        C  0.37699707  0.10003121  0.27645710     0.74500
C265        C  0.32797063  0.13834732  0.27461047     0.76900
Cd266      Cd  0.36027586  0.12795999  0.24826370     1.37500
O267        O  0.38164979  0.15830764  0.24320692    -0.58100
O268        O  0.34567310  0.14511108  0.27649390    -0.56900
C269        C  0.36652831  0.10514020  0.21208762     0.76800
O270        O  0.32456567  0.12716018  0.25944932    -0.59300
O271        O  0.35234078  0.15774126  0.22924980    -0.57800
O272        O  0.36016914  0.09793971  0.26788712    -0.57800
O273        O  0.38043425  0.11361700  0.22191917    -0.56900
O274        O  0.39456117  0.00955438  0.10119529    -0.58100
C275        C  0.39366099  0.04990798  0.15204757     0.74500
O276        O  0.42429697  0.98952916  0.15610205    -0.59300
C277        C  0.40568196  0.99478259  0.09645254     0.74500
C278        C  0.44831620  0.04057451  0.12085163     0.76900
Cd279      Cd  0.41386903  0.01723987  0.13236119     1.37500
O280        O  0.38403419  0.03937607  0.13933579    -0.58100
O281        O  0.43244624  0.03948631  0.11039689    -0.56900
C282        C  0.40626922  0.98602366  0.16136393     0.76800
O283        O  0.44904844  0.02955385  0.13644096    -0.59300
O284        O  0.41189192  0.04541732  0.15479078    -0.57800
O285        O  0.42046563  0.99128911  0.10788904    -0.57800
O286        O  0.39294376  0.99707530  0.15363943    -0.56900
O287        O  0.38793838  0.90727867  0.21929138    -0.58100
C288        C  0.36779224  0.85641744  0.25876499     0.74500
O289        O  0.34735660  0.91669168  0.26998517    -0.59300
C290        C  0.37842198  0.92315077  0.21457051     0.74500
C291        C  0.32847999  0.88410381  0.21387014     0.76900
Cd292      Cd  0.35976695  0.89503647  0.24148385     1.37500
O293        O  0.38096249  0.86478964  0.24769652    -0.58100
O294        O  0.34625437  0.87739661  0.21284465    -0.56900
C295        C  0.36469973  0.91809761  0.27791541     0.76800
O296        O  0.32448403  0.89560636  0.22864349    -0.59300
O297        O  0.35123581  0.86559323  0.26076849    -0.57800
O298        O  0.36115412  0.92523975  0.22221327    -0.57800
O299        O  0.37871988  0.90866747  0.26920813    -0.56900
O300        O  0.38767186  0.01289094  0.39292071    -0.58100
C301        C  0.38901552  0.97415873  0.33907483     0.74500
O302        O  0.41853874  0.03412709  0.33817924    -0.59300
C303        C  0.39924592  0.02698150  0.39866378     0.74500
C304        C  0.44105319  0.98247829  0.37401260     0.76900
Cd305      Cd  0.40739153  0.00632547  0.36147311     1.37500
O306        O  0.37855578  0.98375575  0.35188606    -0.58100
O307        O  0.42436389  0.98264574  0.38317334    -0.56900
C308        C  0.40064083  0.03837501  0.33304284     0.76800
O309        O  0.44288563  0.99451696  0.35927630    -0.59300
O310        O  0.40719623  0.97936831  0.33731995    -0.57800
O311        O  0.41399664  0.03097362  0.38731445    -0.57800
O312        O  0.38689226  0.02795408  0.34100407    -0.56900
O313        O  0.36131965  0.13667942  0.47117329    -0.58100
C314        C  0.41288536  0.11831256  0.51015495     0.74500
O315        O  0.35346068  0.09765792  0.52355402    -0.59300
C316        C  0.34591377  0.12653136  0.46610655     0.74500
C317        C  0.38424861  0.07808738  0.46720125     0.76900
Cd318      Cd  0.37381839  0.10959777  0.49423260     1.37500
O319        O  0.40379479  0.13121223  0.49940005    -0.58100
O320        O  0.39119449  0.09576394  0.46605361    -0.56900
C321        C  0.35134081  0.11532709  0.53052629     0.76800
O322        O  0.37278912  0.07423762  0.48204822    -0.59300
O323        O  0.40416110  0.10155668  0.51256228    -0.57800
O324        O  0.34378236  0.10960928  0.47443561    -0.57800
O325        O  0.35980389  0.12934887  0.52089299    -0.56900
O326        O  0.25855498  0.14011704  0.64489153    -0.58100
C327        C  0.29567689  0.14094557  0.59098253     0.74500
O328        O  0.23586976  0.17021475  0.59028268    -0.59300
C329        C  0.24482810  0.15174943  0.65127685     0.74500
C330        C  0.28807265  0.19432875  0.62334697     0.76900
Cd331      Cd  0.26408087  0.15986458  0.61333200     1.37500
O332        O  0.28656002  0.13097195  0.60447494    -0.58100
O333        O  0.28838506  0.17813051  0.63330663    -0.56900
C334        C  0.23133088  0.15215151  0.58605096     0.76800
O335        O  0.27539691  0.19534610  0.60907902    -0.59300
O336        O  0.29016704  0.15890177  0.58843883    -0.57800
O337        O  0.24070570  0.16672500  0.64031470    -0.57800
O338        O  0.24180420  0.13871046  0.59437431    -0.56900
O339        O  0.17345360  0.10938607  0.52128275    -0.58100
C340        C  0.10551170  0.11664287  0.48310003     0.74500
O341        O  0.16576116  0.09684084  0.47068092    -0.59300
C342        C  0.17084495  0.12650324  0.52907108     0.74500
C343        C  0.13433723  0.07557967  0.52567304     0.76900
Cd344      Cd  0.14456147  0.10842241  0.49981909     1.37500
O345        O  0.11375161  0.12911609  0.49503836    -0.58100
O346        O  0.12600575  0.09264333  0.52654370    -0.56900
C347        C  0.16809341  0.11457616  0.46401331     0.76800
O348        O  0.14716963  0.07296517  0.51173108    -0.59300
O349        O  0.11516198  0.10062338  0.47957362    -0.57800
O350        O  0.15562796  0.13634253  0.52305469    -0.57800
O351        O  0.15961094  0.12846195  0.47383736    -0.56900
O352        O  0.26064127  0.14011293  0.34701412    -0.58100
C353        C  0.22281006  0.13982123  0.40207197     0.74500
O354        O  0.28207928  0.16868607  0.40295424    -0.59300
C355        C  0.27504994  0.15164915  0.34203655     0.74500
C356        C  0.23031865  0.19247912  0.36876281     0.76900
Cd357      Cd  0.25439767  0.15844087  0.37942310     1.37500
O358        O  0.23206508  0.12944370  0.38892985    -0.58100
O359        O  0.22927001  0.17569617  0.35982914    -0.56900
C360        C  0.28597418  0.15068055  0.40793448     0.76800
O361        O  0.24366887  0.19422444  0.38235317    -0.59300
O362        O  0.22808979  0.15796853  0.40388871    -0.57800
O363        O  0.27922851  0.16570194  0.35417044    -0.57800
O364        O  0.27551480  0.13714794  0.39962843    -0.56900
O365        O  0.75349474  0.64155059  0.14233513    -0.58100
C366        C  0.79072480  0.64039836  0.08899802     0.74500
O367        O  0.73161373  0.67262194  0.08839935    -0.59300
C368        C  0.74023881  0.65372627  0.14870110     0.74500
C369        C  0.78540345  0.69415476  0.12093464     0.76900
Cd370      Cd  0.75978366  0.66089590  0.11084262     1.37500
O371        O  0.78164112  0.63104343  0.10295264    -0.58100
O372        O  0.78424618  0.67826388  0.13129606    -0.56900
C373        C  0.72622668  0.65478047  0.08424038     0.76800
O374        O  0.77349397  0.69554125  0.10605347    -0.59300
O375        O  0.78511107  0.65816972  0.08555107    -0.57800
O376        O  0.73676638  0.66891137  0.13779606    -0.57800
O377        O  0.73634669  0.64086948  0.09222473    -0.56900
O378        O  0.84159148  0.61324854  0.97575867    -0.58100
C379        C  0.91099844  0.61888954  0.01281312     0.74500
O380        O  0.84983079  0.59818677  0.02202404    -0.59300
C381        C  0.84419490  0.63010810  0.96743372     0.74500
C382        C  0.88324748  0.58045688  0.96643523     0.76900
Cd383      Cd  0.87237733  0.61118776  0.99458319     1.37500
O384        O  0.90264397  0.63207501  0.00179194    -0.58100
O385        O  0.88973675  0.59831754  0.96543800    -0.56900
C386        C  0.84853066  0.61536042  0.03032912     0.76800
O387        O  0.87229378  0.57614249  0.98152138    -0.59300
O388        O  0.90172916  0.60235724  0.01470548    -0.57800
O389        O  0.86036204  0.63933161  0.97190475    -0.57800
O390        O  0.85853611  0.62941177  0.02234164    -0.56900
O391        O  0.75804895  0.64404475  0.85183936    -0.58100
C392        C  0.71973513  0.64691666  0.90570519     0.74500
O393        O  0.77945921  0.67473597  0.90600762    -0.59300
C394        C  0.77281849  0.65483746  0.84628674     0.74500
C395        C  0.72670453  0.69803547  0.87007002     0.76900
Cd396      Cd  0.75134406  0.66464482  0.88249711     1.37500
O397        O  0.72651050  0.63732752  0.89058908    -0.58100
O398        O  0.72739633  0.68148836  0.86071061    -0.56900
C399        C  0.78327001  0.65665812  0.91087712     0.76800
O400        O  0.73887553  0.70011864  0.88467531    -0.59300
O401        O  0.72764308  0.66379398  0.90937143    -0.57800
O402        O  0.77685872  0.66996405  0.85715767    -0.57800
O403        O  0.77262962  0.64327406  0.90253472    -0.56900
O404        O  0.60785251  0.63394798  0.99342585    -0.58100
C405        C  0.66458637  0.63142415  0.02800692     0.74500
O406        O  0.64081875  0.57808613  0.01305265    -0.59300
C407        C  0.59951156  0.62081347  0.98230471     0.74500
C408        C  0.66235877  0.62064487  0.96513901     0.76900
Cd409      Cd  0.63799984  0.61310765  0.99997078     1.37500
O410        O  0.64836388  0.64053708  0.02364252    -0.58100
O411        O  0.65376273  0.63408081  0.97547952    -0.56900
C412        C  0.62946516  0.58145276  0.02810147     0.76800
O413        O  0.65931184  0.60254273  0.97048268    -0.59300
O414        O  0.66808215  0.61514833  0.01884406    -0.57800
O415        O  0.60866741  0.60424522  0.98030525    -0.57800
O416        O  0.62149251  0.59869644  0.02907573    -0.56900
O417        O  0.13811534  0.15577042  0.74703487    -0.58100
C418        C  0.14058056  0.09652529  0.71520951     0.74500
O419        O  0.19470851  0.12225173  0.73205686    -0.59300
C420        C  0.15023547  0.16350628  0.75966944     0.74500
C421        C  0.15209421  0.10118173  0.77872928     0.76900
Cd422      Cd  0.15870449  0.12444812  0.74296812     1.37500
O423        O  0.13136710  0.11274820  0.71933444    -0.58100
O424        O  0.13828165  0.10984649  0.76897882    -0.56900
C425        C  0.19227388  0.13489363  0.71795376     0.76800
O426        O  0.16990036  0.10351693  0.77219111    -0.59300
O427        O  0.15746489  0.09411528  0.72355465    -0.57800
O428        O  0.16567965  0.15325750  0.76393673    -0.57800
O429        O  0.17500808  0.14268122  0.71639601    -0.56900
O430        O  0.13920731  0.98217743  0.63929840    -0.58100
C431        C  0.11836907  0.02336954  0.59284406     0.74500
O432        O  0.07411644  0.99090510  0.63432858    -0.59300
C433        C  0.12887061  0.97148163  0.65128902     0.74500
C434        C  0.11482757  0.03473750  0.65956298     0.76900
Cd435      Cd  0.10924467  0.00332199  0.62999888     1.37500
O436        O  0.12971731  0.00927371  0.59886601    -0.58100
O437        O  0.12831112  0.02272163  0.65378621    -0.56900
C438        C  0.07483060  0.97962731  0.61890135     0.76800
O439        O  0.09761059  0.03251037  0.65162385    -0.59300
O440        O  0.10355228  0.02764058  0.60397369    -0.57800
O441        O  0.11028477  0.97520134  0.65216347    -0.57800
O442        O  0.09071616  0.98049087  0.60845471    -0.56900
O443        O  0.14266301  0.86380096  0.74357859    -0.58100
C444        C  0.14292034  0.92082152  0.77762220     0.74500
O445        O  0.19815544  0.89884973  0.76132977    -0.59300
C446        C  0.15458661  0.85698595  0.73025980     0.74500
C447        C  0.15574135  0.91845738  0.71382520     0.76900
Cd448      Cd  0.16269943  0.89485825  0.74928196     1.37500
O449        O  0.13482549  0.90397282  0.77361344    -0.58100
O450        O  0.14208899  0.90971189  0.72376055    -0.56900
C451        C  0.19633071  0.88555819  0.77491096     0.76800
O452        O  0.17360727  0.91649383  0.72031030    -0.59300
O453        O  0.15903989  0.92484411  0.76841483    -0.57800
O454        O  0.17019823  0.86730558  0.72672095    -0.57800
O455        O  0.17973728  0.87627112  0.77552647    -0.56900
O456        O  0.12833370  0.00756078  0.89274851    -0.58100
C457        C  0.12668679  0.04505686  0.83914975     0.74500
O458        O  0.09713825  0.98475938  0.83915008    -0.59300
C459        C  0.11667516  0.99383251  0.89910217     0.74500
C460        C  0.07443668  0.03841514  0.87293895     0.76900
Cd461      Cd  0.10791777  0.01357029  0.86178114     1.37500
O462        O  0.13687101  0.03610825  0.85259427    -0.58100
O463        O  0.09104929  0.03836755  0.88222378    -0.56900
C464        C  0.11517165  0.98105523  0.83402905     0.76800
O465        O  0.07245531  0.02562233  0.85884061    -0.59300
O466        O  0.10873503  0.03932954  0.83679438    -0.57800
O467        O  0.10136990  0.99005233  0.88843556    -0.57800
O468        O  0.12855303  0.99207085  0.84180088    -0.56900
O469        O  0.36615407  0.88128046  0.02552961    -0.58100
C470        C  0.41754690  0.90009031  0.98648018     0.74500
O471        O  0.35772912  0.92255181  0.97415758    -0.59300
C472        C  0.34855005  0.88865277  0.02642938     0.74500
C473        C  0.38810662  0.93994310  0.03124057     0.76900
Cd474      Cd  0.37845094  0.90881364  0.00262494     1.37500
O475        O  0.40847316  0.88697369  0.99701807    -0.58100
O476        O  0.39403683  0.92197123  0.03285642    -0.56900
C477        C  0.35667511  0.90563490  0.96528909     0.76800
O478        O  0.37767520  0.94406921  0.01577551    -0.59300
O479        O  0.40874686  0.91681082  0.98434479    -0.57800
O480        O  0.34547854  0.90434892  0.01623539    -0.57800
O481        O  0.36634268  0.89134852  0.97325136    -0.56900
O482        O  0.26261171  0.87904042  0.14036712    -0.58100
C483        C  0.22217220  0.87599147  0.08834391     0.74500
O484        O  0.28234057  0.84577206  0.08752922    -0.59300
C485        C  0.27641415  0.86730678  0.14637393     0.74500
C486        C  0.22987912  0.82540783  0.12387138     0.76900
Cd487      Cd  0.25459420  0.85802742  0.11029492     1.37500
O488        O  0.23104062  0.88636349  0.10176860    -0.58100
O489        O  0.23063689  0.84227499  0.13264410    -0.56900
C490        C  0.28574936  0.86322584  0.08060364     0.76800
O491        O  0.24190084  0.82281041  0.10921733    -0.59300
O492        O  0.22844311  0.85826690  0.08573452    -0.57800
O493        O  0.27964298  0.85185954  0.13573561    -0.57800
O494        O  0.27500345  0.87730062  0.08747199    -0.56900
O495        O  0.26156276  0.88443905  0.84941503    -0.58100
C496        C  0.29975894  0.88326171  0.90419323     0.74500
O497        O  0.23988215  0.85303306  0.90350613    -0.59300
C498        C  0.24821472  0.87229166  0.84307915     0.74500
C499        C  0.29311296  0.83157793  0.86933443     0.76900
Cd500      Cd  0.26808118  0.86481354  0.88095917     1.37500
O501        O  0.29070452  0.89368691  0.89099182    -0.58100
O502        O  0.29275292  0.84806789  0.85987153    -0.56900
C503        C  0.23490180  0.87080446  0.90840873     0.76800
O504        O  0.28068099  0.82969132  0.88375369    -0.59300
O505        O  0.29401695  0.86528472  0.90617577    -0.57800
O506        O  0.24448788  0.85731898  0.85420104    -0.57800
O507        O  0.24513572  0.88481556  0.90066217    -0.56900
O508        O  0.15591075  0.88259426  0.96819855    -0.58100
C509        C  0.10360442  0.90127849  0.00792209     0.74500
O510        O  0.16264574  0.91954521  0.02273226    -0.59300
C511        C  0.17179464  0.89259079  0.96440892     0.74500
C512        C  0.13359353  0.94127985  0.96573877     0.76900
Cd513      Cd  0.14314244  0.90894456  0.99222687     1.37500
O514        O  0.11181787  0.88858544  0.99617756    -0.58100
O515        O  0.12620008  0.92381457  0.96419911    -0.56900
C516        C  0.16536638  0.90153873  0.02849521     0.76800
O517        O  0.14534602  0.94447166  0.98050533    -0.59300
O518        O  0.11346708  0.91718261  0.01149454    -0.57800
O519        O  0.17396410  0.90898082  0.97379818    -0.57800
O520        O  0.15744876  0.88791199  0.01780779    -0.56900
O521        O  0.43003878  0.74843928  0.85719383    -0.58100
C522        C  0.36004431  0.77928751  0.85227728     0.74500
O523        O  0.42336678  0.78332628  0.82935973    -0.59300
C524        C  0.42351432  0.73637379  0.87026393     0.74500
C525        C  0.38699084  0.73234155  0.81202361     0.76900
Cd526      Cd  0.39785756  0.75994189  0.84400544     1.37500
O527        O  0.36828412  0.76826461  0.86550852    -0.58100
O528        O  0.37889910  0.73251823  0.82920101    -0.56900
C529        C  0.42108917  0.79637815  0.84314311     0.76800
O530        O  0.40063774  0.74532867  0.80903927    -0.59300
O531        O  0.36908135  0.78067423  0.83556143    -0.57800
O532        O  0.40457237  0.73540364  0.87208637    -0.57800
O533        O  0.40757245  0.79287417  0.85606152    -0.56900
O534        O  0.50004111  0.62009248  0.86960076    -0.58100
C535        C  0.54009426  0.66398143  0.86609496     0.74500
O536        O  0.49987493  0.68281126  0.89310211    -0.59300
C537        C  0.48695514  0.61299875  0.88153880     0.74500
C538        C  0.53395285  0.63762638  0.92881494     0.76900
Cd539      Cd  0.51059713  0.64749241  0.89357908     1.37500
O540        O  0.54486029  0.65339452  0.88112823    -0.58100
O541        O  0.53098197  0.62540471  0.91456573    -0.56900
C542        C  0.48168931  0.67972114  0.89755695     0.76800
O543        O  0.52504679  0.65437458  0.92751820    -0.59300
O544        O  0.52152856  0.66466416  0.86194728    -0.57800
O545        O  0.48549940  0.62154597  0.89843704    -0.57800
O546        O  0.47717944  0.66190775  0.90226874    -0.56900
O547        O  0.51274897  0.90309192  0.87436261    -0.58100
C548        C  0.47668327  0.85590948  0.86952475     0.74500
O549        O  0.51900041  0.84021711  0.90575091    -0.59300
C550        C  0.52504306  0.91108155  0.88658949     0.74500
C551        C  0.48314183  0.88318598  0.93330329     0.76900
Cd552      Cd  0.50540813  0.87382002  0.89711156     1.37500
O553        O  0.47151381  0.86705162  0.88400531    -0.58100
O554        O  0.48427768  0.89473040  0.91829536    -0.56900
C555        C  0.53671817  0.84392342  0.89988606     0.76800
O556        O  0.49337017  0.86717186  0.93233896    -0.59300
O557        O  0.49536063  0.85465458  0.86629468    -0.57800
O558        O  0.52781333  0.90184487  0.90295899    -0.57800
O559        O  0.54025392  0.86176822  0.89451694    -0.56900
O560        O  0.58594865  0.77475290  0.85814827    -0.58100
C561        C  0.65706495  0.74612792  0.85238677     0.74500
O562        O  0.60858479  0.72911689  0.85548743    -0.59300
C563        C  0.59315503  0.78630863  0.87136605     0.74500
C564        C  0.62623571  0.79185110  0.81276614     0.76900
Cd565      Cd  0.61776779  0.76275023  0.84417457     1.37500
O566        O  0.64692902  0.75457657  0.86618383    -0.58100
O567        O  0.63351833  0.79252740  0.83028352    -0.56900
C568        C  0.59505139  0.72557488  0.84260556     0.76800
O569        O  0.61454081  0.77723305  0.80908624    -0.59300
O570        O  0.64917497  0.74587337  0.83504252    -0.57800
O571        O  0.61211768  0.78652288  0.87292683    -0.57800
O572        O  0.59247099  0.73892020  0.82922656    -0.56900
O573        O  0.76060787  0.14419893  0.14067990    -0.58100
C574        C  0.73028500  0.14418846  0.08085191     0.74500
O575        O  0.74327222  0.19992081  0.10919319    -0.59300
C576        C  0.77302922  0.15670159  0.14815935     0.74500
C577        C  0.79288509  0.16008693  0.08796120     0.76900
Cd578      Cd  0.75561334  0.16442716  0.10962411     1.37500
O579        O  0.73364673  0.13578467  0.09768983    -0.58100
O580        O  0.78504959  0.14636275  0.09853048    -0.56900
C581        C  0.72861574  0.19635677  0.12094094     0.76800
O582        O  0.78357906  0.17675336  0.08745121    -0.59300
O583        O  0.73856192  0.16105310  0.07809321    -0.57800
O584        O  0.77642284  0.17246469  0.13805276    -0.57800
O585        O  0.72716381  0.17859713  0.12754830    -0.56900
O586        O  0.90611617  0.13158263  0.99519759    -0.58100
C587        C  0.85481313  0.13384548  0.03450593     0.74500
O588        O  0.85081863  0.10071951  0.97442269    -0.59300
C589        C  0.91031736  0.12138135  0.97960313     0.74500
C590        C  0.88447625  0.07770740  0.02638560     0.76900
Cd591      Cd  0.87405087  0.11238270  0.00223469     1.37500
O592        O  0.86543252  0.14354551  0.02193566    -0.58100
O593        O  0.89460791  0.09380304  0.02605611    -0.56900
C594        C  0.84210233  0.11761198  0.97301646     0.76800
O595        O  0.86970531  0.07678322  0.01429683    -0.59300
O596        O  0.85431619  0.11499813  0.03241786    -0.57800
O597        O  0.89806599  0.10756386  0.97510065    -0.57800
O598        O  0.84805021  0.13113077  0.98495432    -0.56900
O599        O  0.75666644  0.14449711  0.85235138    -0.58100
C600        C  0.78603831  0.14414772  0.91243397     0.74500
O601        O  0.77519791  0.20030188  0.88723930    -0.59300
C602        C  0.74535210  0.15745891  0.84405654     0.74500
C603        C  0.72420969  0.16039917  0.90313055     0.76900
Cd604      Cd  0.76193650  0.16514652  0.88325670     1.37500
O605        O  0.78463648  0.13709196  0.89468873    -0.58100
O606        O  0.73362846  0.14621911  0.89467034    -0.56900
C607        C  0.78965642  0.19726825  0.87511304     0.76800
O608        O  0.73217377  0.17775309  0.90229043    -0.59300
O609        O  0.77625152  0.16001562  0.91599453    -0.57800
O610        O  0.74297577  0.17386466  0.85343441    -0.57800
O611        O  0.79051236  0.18008140  0.86700811    -0.56900
O612        O  0.61392072  0.13139128  0.99553272    -0.58100
C613        C  0.66346787  0.13289839  0.95632742     0.74500
O614        O  0.66821002  0.13073818  0.00839708    -0.59300
C615        C  0.60876248  0.12047509  0.01030371     0.74500
C616        C  0.63357035  0.07680113  0.96514392     0.76900
Cd617      Cd  0.64492669  0.11139077  0.98871230     1.37500
O618        O  0.65205409  0.14230563  0.96837785    -0.58100
O619        O  0.62255627  0.09216518  0.96710135    -0.56900
C620        C  0.67529124  0.11696967  0.01931333     0.76800
O621        O  0.64969068  0.07659619  0.97537819    -0.59300
O622        O  0.66533977  0.11424853  0.95915495    -0.57800
O623        O  0.62016318  0.10585817  0.01441092    -0.57800
O624        O  0.66840955  0.09943216  0.01627785    -0.56900
O625        O  0.51160153  0.11567201  0.11658873    -0.58100
C626        C  0.54221705  0.17582946  0.11500200     0.74500
O627        O  0.52834160  0.14905789  0.06104306    -0.59300
C628        C  0.49971480  0.10777407  0.10382655     0.74500
C629        C  0.48018392  0.16953172  0.10286137     0.76900
Cd630      Cd  0.51620450  0.14693494  0.09651202     1.37500
O631        O  0.53903263  0.15934548  0.12415446    -0.58100
O632        O  0.48965424  0.16050245  0.11665209    -0.56900
C633        C  0.54315931  0.13747739  0.06432672     0.76800
O634        O  0.48702883  0.16766549  0.08507985    -0.59300
O635        O  0.53339103  0.17812741  0.09833410    -0.57800
O636        O  0.49629278  0.11780081  0.08800358    -0.57800
O637        O  0.54469882  0.13032406  0.08189908    -0.56900
O638        O  0.36961032  0.26613781  0.12636061    -0.58100
C639        C  0.42006686  0.22560957  0.12894052     0.74500
O640        O  0.42112528  0.28700433  0.15974328    -0.59300
C641        C  0.36413038  0.28084867  0.13725263     0.74500
C642        C  0.38692972  0.23468564  0.18174968     0.76900
Cd643      Cd  0.39941526  0.25828240  0.14792301     1.37500
O644        O  0.40816592  0.23622064  0.11843318    -0.58100
O645        O  0.37692827  0.23579911  0.16558934    -0.56900
C646        C  0.43012424  0.28815417  0.14293372     0.76800
O647        O  0.40229982  0.24593962  0.18311086    -0.59300
O648        O  0.42133123  0.22993605  0.14741135    -0.57800
O649        O  0.37485794  0.28456616  0.15252275    -0.57800
O650        O  0.42514587  0.27544721  0.12973240    -0.56900
O651        O  0.65680806  0.26384342  0.12667196    -0.58100
C652        C  0.60472180  0.30250838  0.12462567     0.74500
O653        O  0.60176198  0.24341838  0.15772688    -0.59300
C654        C  0.66199253  0.24930574  0.13788525     0.74500
C655        C  0.63645203  0.29525224  0.17969601     0.76900
Cd656      Cd  0.62520010  0.27082879  0.14578775     1.37500
O657        O  0.61733155  0.29170838  0.11520535    -0.58100
O658        O  0.64683583  0.29395598  0.16378394    -0.56900
C659        C  0.59619912  0.23922560  0.13992330     0.76800
O660        O  0.62101823  0.28403357  0.18071955    -0.59300
O661        O  0.60233925  0.29873804  0.14309355    -0.57800
O662        O  0.65031761  0.24522170  0.15235545    -0.57800
O663        O  0.60388778  0.24960263  0.12600902    -0.56900
O664        O  0.51256155  0.40901017  0.11422194    -0.58100
C665        C  0.48256510  0.35050141  0.11399137     0.74500
O666        O  0.49540045  0.37627800  0.05698704    -0.59300
C667        C  0.52450522  0.41713152  0.10169863     0.74500
C668        C  0.54427038  0.35686889  0.09738867     0.76900
Cd669      Cd  0.50730591  0.37868752  0.09278551     1.37500
O670        O  0.48486906  0.36793737  0.12145358    -0.58100
O671        O  0.53564555  0.36644395  0.11136888    -0.56900
C672        C  0.48058471  0.38794034  0.05989418     0.76800
O673        O  0.53595299  0.35749391  0.08018075    -0.59300
O674        O  0.49129306  0.34712534  0.09745262    -0.57800
O675        O  0.52727375  0.40786820  0.08527507    -0.57800
O676        O  0.47883268  0.39521657  0.07741293    -0.56900
O677        O  0.63441021  0.41061478  0.27503457    -0.58100
C678        C  0.65476048  0.36034238  0.23410740     0.74500
O679        O  0.67513542  0.41903472  0.22385777    -0.59300
C680        C  0.64335808  0.42710002  0.27882172     0.74500
C681        C  0.69293062  0.38669474  0.28137640     0.76900
Cd682      Cd  0.66267269  0.39821960  0.25304778     1.37500
O683        O  0.64198965  0.36783110  0.24624796    -0.58100
O684        O  0.67517349  0.37982801  0.28162939    -0.56900
C685        C  0.65747910  0.42058245  0.21662215     0.76800
O686        O  0.69730243  0.39871988  0.26716034    -0.59300
O687        O  0.67110355  0.36990080  0.23192958    -0.57800
O688        O  0.66039364  0.42952675  0.27071777    -0.57800
O689        O  0.64358070  0.41177976  0.22615854    -0.56900
O690        O  0.62829084  0.51341492  0.39614198    -0.58100
C691        C  0.62814527  0.55274142  0.34369535     0.74500
O692        O  0.59835811  0.49183075  0.34011629    -0.59300
C693        C  0.61781553  0.49818146  0.40093648     0.74500
C694        C  0.57419826  0.54194444  0.37507613     0.76900
Cd695      Cd  0.60927873  0.51938956  0.36400083     1.37500
O696        O  0.63856366  0.54188709  0.35543092    -0.58100
O697        O  0.58994067  0.54137068  0.38575449    -0.56900
C698        C  0.61618842  0.48858827  0.33410581     0.76800
O699        O  0.57386999  0.53058680  0.35969083    -0.59300
O700        O  0.60975419  0.54831709  0.34217731    -0.57800
O701        O  0.60399375  0.49330888  0.38880154    -0.57800
O702        O  0.62977313  0.49935063  0.34189407    -0.56900
O703        O  0.63045772  0.51532747  0.10185252    -0.58100
C704        C  0.63070558  0.47454130  0.15472806     0.74500
O705        O  0.59886390  0.53343795  0.15664533    -0.59300
C706        C  0.61795678  0.52864878  0.09630776     0.74500
C707        C  0.57749235  0.48247513  0.12116798     0.76900
Cd708      Cd  0.61110165  0.50655193  0.13306013     1.37500
O709        O  0.64085974  0.48468638  0.14210028    -0.58100
O710        O  0.59412266  0.48248172  0.11188069    -0.56900
C711        C  0.61645826  0.53741450  0.16289428     0.76800
O712        O  0.57581994  0.49457834  0.13588228    -0.59300
O713        O  0.61230426  0.47894809  0.15628385    -0.57800
O714        O  0.60286671  0.53123644  0.10759797    -0.57800
O715        O  0.63064565  0.52742642  0.15518288    -0.56900
O716        O  0.63600073  0.65855011  0.24952957    -0.58100
C717        C  0.63967908  0.59869384  0.21992131     0.74500
O718        O  0.69352232  0.62825410  0.23288560    -0.59300
C719        C  0.64889228  0.66811319  0.25994151     0.74500
C720        C  0.65308130  0.60822293  0.28295643     0.76900
Cd721      Cd  0.65793134  0.62863794  0.24518636     1.37500
O722        O  0.63057349  0.61524233  0.22278357    -0.58100
O723        O  0.63894309  0.61687071  0.27367547    -0.56900
C724        C  0.68923086  0.63819805  0.21713035     0.76800
O725        O  0.67045050  0.60937808  0.27502899    -0.59300
O726        O  0.65618263  0.59645883  0.22906496    -0.57800
O727        O  0.66581935  0.65975025  0.26231744    -0.57800
O728        O  0.67114268  0.64372121  0.21518353    -0.56900
O729        O  0.15147116  0.75898566  0.62260401    -0.58100
C730        C  0.09991134  0.79879919  0.62521225     0.74500
O731        O  0.09916661  0.73902855  0.65660065    -0.59300
C732        C  0.15691404  0.74423370  0.63339979     0.74500
C733        C  0.13483720  0.79124492  0.67733072     0.76900
Cd734      Cd  0.12155426  0.76689202  0.64415805     1.37500
O735        O  0.11275259  0.78898691  0.61500569    -0.58100
O736        O  0.14353039  0.79098700  0.66038786    -0.56900
C737        C  0.09093523  0.73663396  0.63951906     0.76800
O738        O  0.12035260  0.77901270  0.67966762    -0.59300
O739        O  0.09790566  0.79398163  0.64349174    -0.57800
O740        O  0.14621719  0.74057867  0.64871277    -0.57800
O741        O  0.09675330  0.74821499  0.62564464    -0.56900
O742        O  0.00954886  0.90620036  0.61419884    -0.58100
C743        C  0.97693760  0.84747315  0.61254677     0.74500
O744        O  0.98943816  0.87425213  0.55807008    -0.59300
C745        C  0.02111641  0.91416151  0.60119292     0.74500
C746        C  0.03915062  0.85379503  0.59911101     0.76900
Cd747      Cd  0.00288383  0.87600466  0.59323186     1.37500
O748        O  0.97917758  0.86475154  0.62045414    -0.58100
O749        O  0.03007388  0.86321060  0.61294052    -0.56900
C750        C  0.97537457  0.88664645  0.56178415     0.76800
O751        O  0.03167093  0.85493354  0.58152017    -0.59300
O752        O  0.98668963  0.84410950  0.59656727    -0.57800
O753        O  0.02320693  0.90480764  0.58469476    -0.57800
O754        O  0.97501156  0.89417314  0.57928087    -0.56900
O755        O  0.86158902  0.76061860  0.62807280    -0.58100
C756        C  0.91437231  0.72236328  0.62842445     0.74500
O757        O  0.91554039  0.78344994  0.65779148    -0.59300
C758        C  0.85662740  0.77587427  0.63845738     0.74500
C759        C  0.88230417  0.73052646  0.68191971     0.76900
Cd760      Cd  0.89321136  0.75463812  0.64759135     1.37500
O761        O  0.90047608  0.73123819  0.61879879    -0.58100
O762        O  0.87187485  0.73168535  0.66605488    -0.56900
C763        C  0.92204824  0.78597977  0.63998846     0.76800
O764        O  0.89750369  0.74206509  0.68296093    -0.59300
O765        O  0.91794338  0.72857286  0.64603983    -0.57800
O766        O  0.86836257  0.78065239  0.65267202    -0.57800
O767        O  0.91518744  0.77426631  0.62667309    -0.56900
O768        O  0.00626203  0.61387135  0.61973929    -0.58100
C769        C  0.03557989  0.67379548  0.61637412     0.74500
O770        O  0.02351043  0.64686011  0.56266729    -0.59300
C771        C  0.99574927  0.60430150  0.60693684     0.74500
C772        C  0.97323367  0.66504846  0.60304283     0.76900
Cd773      Cd  0.01048597  0.64389466  0.59787196     1.37500
O774        O  0.03365138  0.65685626  0.62501029    -0.58100
O775        O  0.98285112  0.65675812  0.61718285    -0.56900
C776        C  0.03880726  0.63601541  0.56625592     0.76800
O777        O  0.98038567  0.66291623  0.58541177    -0.59300
O778        O  0.02572814  0.67625132  0.60032511    -0.57800
O779        O  0.99304377  0.61277100  0.59008132    -0.57800
O780        O  0.03991137  0.62838755  0.58365402    -0.56900
O781        O  0.29196753  0.39177001  0.09769038    -0.58100
C782        C  0.25038244  0.37012562  0.14887836     0.74500
O783        O  0.23941089  0.35320893  0.08907358    -0.59300
C784        C  0.29469601  0.38299877  0.08085209     0.74500
C785        C  0.29718890  0.33331933  0.11959192     0.76900
Cd786      Cd  0.26877759  0.36427533  0.11002687     1.37500
O787        O  0.26236241  0.38335769  0.14193508    -0.58100
O788        O  0.29792678  0.35093706  0.12677184    -0.56900
C789        C  0.23226992  0.37092406  0.08806595     0.76800
O790        O  0.28241380  0.32930009  0.10810307    -0.59300
O791        O  0.24804388  0.35444124  0.13828715    -0.57800
O792        O  0.28524890  0.36671609  0.07817731    -0.57800
O793        O  0.24189736  0.38452762  0.09728548    -0.56900
O794        O  0.11310589  0.39485103  0.99684861    -0.58100
C795        C  0.16873974  0.39654013  0.03527788     0.74500
O796        O  0.16763799  0.42445146  0.97600000    -0.59300
C797        C  0.10803309  0.40629760  0.98239765     0.74500
C798        C  0.13270293  0.44756089  0.02853293     0.76900
Cd799      Cd  0.14466713  0.41417152  0.00409540     1.37500
O800        O  0.15431574  0.38643535  0.02777751    -0.58100
O801        O  0.12384869  0.43071350  0.02885875    -0.56900
C802        C  0.17247696  0.40641526  0.97195077     0.76800
O803        O  0.14669973  0.44967274  0.01566264    -0.59300
O804        O  0.17127290  0.41411447  0.02855093    -0.57800
O805        O  0.11960152  0.42096207  0.97875661    -0.57800
O806        O  0.16438370  0.39288216  0.98256925    -0.56900
O807        O  0.25908519  0.38604447  0.85030849    -0.58100
C808        C  0.22728403  0.38105926  0.90919794     0.74500
O809        O  0.24250020  0.32782999  0.87930264    -0.59300
C810        C  0.26928236  0.37308031  0.84063858     0.74500
C811        C  0.29112725  0.36816007  0.90166743     0.76900
Cd812      Cd  0.25392433  0.36356445  0.87989265     1.37500
O813        O  0.23173332  0.39103979  0.89350691    -0.58100
O814        O  0.28188195  0.38236553  0.89313389    -0.56900
C815        C  0.22699842  0.33167117  0.86879614     0.76800
O816        O  0.28330057  0.35079930  0.90008718    -0.59300
O817        O  0.23521295  0.36389188  0.91076684    -0.57800
O818        O  0.27136239  0.35607490  0.84888244    -0.57800
O819        O  0.22477336  0.34972170  0.86322523    -0.56900
O820        O  0.40947134  0.39293765  0.99104302    -0.58100
C821        C  0.35501389  0.39302397  0.95404452     0.74500
O822        O  0.35669423  0.42462488  0.01447651    -0.59300
C823        C  0.41544941  0.40463731  0.00494591     0.74500
C824        C  0.38673616  0.44714019  0.96026966     0.76900
Cd825      Cd  0.37784735  0.41286266  0.98504140     1.37500
O826        O  0.36778234  0.38289180  0.96397829    -0.58100
O827        O  0.39761721  0.43154013  0.96048198    -0.56900
C828        C  0.34989070  0.40712605  0.01786747     0.76800
O829        O  0.37233473  0.44768437  0.97281651    -0.59300
O830        O  0.35376812  0.41148158  0.95821736    -0.57800
O831        O  0.40450046  0.41974197  0.00853430    -0.57800
O832        O  0.35614395  0.39333796  0.00640389    -0.56900
O833        O  0.00780135  0.40856945  0.87413773    -0.58100
C834        C  0.04053102  0.34980159  0.87867839     0.74500
O835        O  0.02642469  0.37935889  0.93244118    -0.59300
C836        C  0.99661704  0.41739995  0.88691146     0.74500
C837        C  0.97825206  0.35617064  0.89219172     0.76900
Cd838      Cd  0.01440672  0.37921914  0.89677647     1.37500
O839        O  0.03814571  0.36666757  0.87001388    -0.58100
O840        O  0.98729928  0.36490319  0.87792403    -0.56900
C841        C  0.04150727  0.39046008  0.92860875     0.76800
O842        O  0.98571116  0.35834766  0.90968628    -0.59300
O843        O  0.03089823  0.34719677  0.89486352    -0.57800
O844        O  0.99459677  0.40885562  0.90381116    -0.57800
O845        O  0.04312436  0.39668582  0.91068414    -0.56900
O846        O  0.15627870  0.26249336  0.86360780    -0.58100
C847        C  0.10338963  0.22261779  0.86275923     0.74500
O848        O  0.10176492  0.28463893  0.83492426    -0.59300
C849        C  0.16104615  0.27735839  0.85258670     0.74500
C850        C  0.13457243  0.23237157  0.80962551     0.76900
Cd851      Cd  0.12419166  0.25579790  0.84459604     1.37500
O852        O  0.11640740  0.23204613  0.87315197    -0.58100
O853        O  0.14520647  0.23321487  0.82539479    -0.56900
C854        C  0.09494390  0.28699646  0.85262864     0.76800
O855        O  0.11940439  0.24394927  0.80901159    -0.59300
O856        O  0.10093599  0.22844297  0.84485148    -0.57800
O857        O  0.14908506  0.28147370  0.83839077    -0.57800
O858        O  0.10144977  0.27498177  0.86581460    -0.56900
O859        O  0.86398155  0.26268611  0.86996062    -0.58100
C860        C  0.91707966  0.30043273  0.86787285     0.74500
O861        O  0.91744037  0.24057215  0.83620155    -0.59300
C862        C  0.85761237  0.24861393  0.85871173     0.74500
C863        C  0.88349691  0.29173689  0.81500644     0.76900
Cd864      Cd  0.89502570  0.26829343  0.84910761     1.37500
O865        O  0.90488099  0.29021233  0.87842634    -0.58100
O866        O  0.87354036  0.29122831  0.83122578    -0.56900
C867        C  0.92392403  0.23647901  0.85367917     0.76800
O868        O  0.89851629  0.28004415  0.81374601    -0.59300
O869        O  0.91827312  0.29590232  0.84946167    -0.57800
O870        O  0.86848176  0.24420298  0.84371674    -0.57800
O871        O  0.91678630  0.24671776  0.86801212    -0.56900
O872        O  0.98288714  0.15773182  0.86730575    -0.58100
C873        C  0.02310279  0.10641247  0.88810121     0.74500
O874        O  0.03554468  0.16546843  0.90598505    -0.59300
C875        C  0.97994371  0.17431005  0.87643254     0.74500
C876        C  0.97764784  0.13621773  0.92622829     0.76900
Cd877      Cd  0.00581183  0.14528476  0.89481214     1.37500
O878        O  0.01105262  0.11370200  0.87515700    -0.58100
O879        O  0.97638128  0.12954635  0.90841497    -0.56900
C880        C  0.04209286  0.16748193  0.88809620     0.76800
O881        O  0.99304594  0.14683063  0.93030667    -0.59300
O882        O  0.02610951  0.11680295  0.90380240    -0.57800
O883        O  0.98908087  0.17671157  0.89294797    -0.57800
O884        O  0.03197594  0.15911897  0.87429064    -0.56900
O885        O  0.88537146  0.40994897  0.72753817    -0.58100
C886        C  0.86551963  0.35933932  0.76486169     0.74500
O887        O  0.84072037  0.41875765  0.77611251    -0.59300
C888        C  0.87805647  0.42743749  0.72543781     0.74500
C889        C  0.82773077  0.38871856  0.71811596     0.76900
Cd890      Cd  0.85661434  0.39821099  0.74877922     1.37500
O891        O  0.87897357  0.36914343  0.75547754    -0.58100
O892        O  0.84573611  0.38266205  0.71783006    -0.56900
C893        C  0.85659556  0.41893906  0.78674745     0.76800
O894        O  0.82232998  0.39868135  0.73352620    -0.59300
O895        O  0.84825522  0.36729244  0.76584869    -0.57800
O896        O  0.86175343  0.43095322  0.73453277    -0.57800
O897        O  0.87152126  0.40936812  0.77990181    -0.56900
O898        O  0.89117282  0.50926215  0.60407306    -0.58100
C899        C  0.88577238  0.54789189  0.65361650     0.74500
O900        O  0.92147025  0.48831929  0.65988422    -0.59300
C901        C  0.89969891  0.49251784  0.60097477     0.74500
C902        C  0.94460304  0.53785716  0.62630101     0.76900
Cd903      Cd  0.90903392  0.51552628  0.63674981     1.37500
O904        O  0.87683506  0.53361413  0.64465814    -0.58100
O905        O  0.92953635  0.53608389  0.61484981    -0.56900
C906        C  0.90493710  0.48728437  0.66934358     0.76800
O907        O  0.94404849  0.52805413  0.64266150    -0.59300
O908        O  0.90474732  0.54748001  0.65339814    -0.57800
O909        O  0.91192930  0.48679904  0.61432846    -0.57800
O910        O  0.89135315  0.49933568  0.66395842    -0.56900
O911        O  0.89836424  0.47000896  0.85424455    -0.58100
C912        C  0.89705606  0.52823937  0.89822918     0.74500
O913        O  0.93919107  0.49015255  0.85308683    -0.59300
C914        C  0.88045235  0.47255022  0.84852276     0.74500
C915        C  0.90334956  0.53267494  0.82913420     0.76900
Cd916      Cd  0.90582609  0.50478254  0.86252929     1.37500
O917        O  0.88698863  0.51250026  0.89446513    -0.58100
O918        O  0.91825134  0.53337538  0.84097371    -0.56900
C919        C  0.94207401  0.48217786  0.87016649     0.76800
O920        O  0.89099042  0.51860799  0.83211997    -0.59300
O921        O  0.91035896  0.53284742  0.88550479    -0.57800
O922        O  0.87303653  0.48981259  0.85157403    -0.57800
O923        O  0.92903015  0.48586876  0.88350645    -0.56900
O924        O  0.86018431  0.59191349  0.76659893    -0.58100
C925        C  0.86460970  0.66265023  0.73292660     0.74500
O926        O  0.84177381  0.60244150  0.72322195    -0.59300
C927        C  0.87689646  0.59487507  0.77511404     0.74500
C928        C  0.82533915  0.63507167  0.77966883     0.76900
Cd929      Cd  0.85590707  0.62413706  0.75091045     1.37500
O930        O  0.87747277  0.65415154  0.74421593    -0.58100
O931        O  0.84312058  0.64182108  0.78007400    -0.56900
C932        C  0.85837232  0.60217535  0.71371720     0.76800
O933        O  0.82103028  0.62333757  0.76519160    -0.59300
O934        O  0.84794325  0.65364382  0.73081272    -0.57800
O935        O  0.88469554  0.61215260  0.77268641    -0.57800
O936        O  0.87266959  0.61214387  0.72131940    -0.56900
O937        O  0.11271408  0.28630372  0.37344367    -0.58100
C938        C  0.16318777  0.24461830  0.35344328     0.74500
O939        O  0.10348546  0.23361546  0.33468194    -0.59300
C940        C  0.09556883  0.28848256  0.36523580     0.74500
C941        C  0.13502134  0.29014724  0.31485262     0.76900
Cd942      Cd  0.12455133  0.26251714  0.34629441     1.37500
O943        O  0.15545612  0.25622684  0.36657003    -0.58100
O944        O  0.14153328  0.29135961  0.33270908    -0.56900
C945        C  0.10289017  0.22581943  0.35215568     0.76800
O946        O  0.12361517  0.27531254  0.31085918    -0.59300
O947        O  0.15333101  0.24220166  0.33730259    -0.57800
O948        O  0.09245907  0.27847912  0.34934759    -0.57800
O949        O  0.11233664  0.23494815  0.36594680    -0.56900
O950        O  0.00663143  0.11649653  0.37870941    -0.58100
C951        C  0.04803917  0.16562332  0.37921706     0.74500
O952        O  0.98625963  0.16961078  0.41086338    -0.59300
C953        C  0.99130195  0.11183432  0.38911523     0.74500
C954        C  0.03716772  0.13502090  0.43360604     0.76900
Cd955      Cd  0.01432274  0.14721848  0.39909328     1.37500
O956        O  0.03618836  0.15452246  0.36913720    -0.58100
O957        O  0.03473048  0.12406032  0.41822825    -0.56900
C958        C  0.98462999  0.17834335  0.39398628     0.76800
O959        O  0.02737213  0.15138273  0.43403795    -0.59300
O960        O  0.04451857  0.16715725  0.39783272    -0.57800
O961        O  0.98714189  0.12338187  0.40365716    -0.57800
O962        O  0.99687059  0.17302176  0.38046863    -0.56900
O963        O  0.90453496  0.23379153  0.37614111    -0.58100
C964        C  0.85330281  0.27240084  0.35565527     0.74500
O965        O  0.91347387  0.28301402  0.33380774    -0.59300
C966        C  0.92181477  0.23189378  0.36814651     0.74500
C967        C  0.88373758  0.22595425  0.31712423     0.76900
Cd968      Cd  0.89214045  0.25527829  0.34759274     1.37500
O969        O  0.86138506  0.26066009  0.36837032    -0.58100
O970        O  0.87721184  0.22474446  0.33497143    -0.56900
C971        C  0.91454042  0.29187221  0.35074626     0.76800
O972        O  0.89374788  0.24160861  0.31271504    -0.59300
O973        O  0.86278406  0.27510706  0.33933517    -0.57800
O974        O  0.92457547  0.24084451  0.35163342    -0.57800
O975        O  0.90477181  0.28410444  0.36511280    -0.56900
O976        O  0.00903460  0.40487864  0.37636332    -0.58100
C977        C  0.97055953  0.35214456  0.37546586     0.74500
O978        O  0.03057528  0.35125772  0.40748705    -0.59300
C979        C  0.02337395  0.41024950  0.38779979     0.74500
C980        C  0.97786574  0.38447880  0.43021304     0.76900
Cd981      Cd  0.00210253  0.37341172  0.39591318     1.37500
O982        O  0.98105719  0.36473896  0.36567296    -0.58100
O983        O  0.97794437  0.39419885  0.41384944    -0.56900
C984        C  0.03358630  0.34419602  0.38998058     0.76800
O985        O  0.98995706  0.36976162  0.43136040    -0.59300
O986        O  0.97454878  0.35018065  0.39394173    -0.57800
O987        O  0.02729027  0.39873285  0.40239048    -0.57800
O988        O  0.02222015  0.35060651  0.37620550    -0.56900
O989        O  0.13589430  0.48178066  0.35162804    -0.58100
C990        C  0.11502439  0.52395267  0.40070936     0.74500
O991        O  0.09618202  0.53364230  0.34063877    -0.59300
C992        C  0.12697096  0.47701108  0.33537097     0.74500
C993        C  0.07573917  0.47790971  0.37299644     0.76900
Cd994      Cd  0.10765369  0.50495872  0.36247485     1.37500
O995        O  0.12781168  0.51189297  0.39317476    -0.58100
O996        O  0.09308340  0.47724386  0.38081203    -0.56900
C997        C  0.11385317  0.54084951  0.33929507     0.76800
O998        O  0.07244973  0.49213606  0.36067641    -0.59300
O999        O  0.09877710  0.52619978  0.39102472    -0.57800
O1000       O  0.11018685  0.48533196  0.33227455    -0.57800
O1001       O  0.12756776  0.53140608  0.34842452    -0.56900
O1002       O  0.14266437  0.36258838  0.24793979    -0.58100
C1003       C  0.14349908  0.41757155  0.21110924     0.74500
O1004       O  0.17287480  0.41620240  0.27070927    -0.59300
C1005       C  0.15399263  0.35658804  0.26209911     0.74500
C1006       C  0.19677395  0.38379788  0.21608231     0.76900
Cd1007     Cd  0.16281576  0.39375856  0.24154085     1.37500
O1008       O  0.13427561  0.40230007  0.21796881    -0.58100
O1009       O  0.18015945  0.37451193  0.21562072    -0.56900
C1010       C  0.15474744  0.42097599  0.27446315     0.76800
O1011       O  0.19851582  0.39732414  0.22949899    -0.59300
O1012       O  0.16068131  0.42113948  0.21838517    -0.57800
O1013       O  0.16927497  0.36732303  0.26582806    -0.57800
O1014       O  0.14151391  0.41305045  0.26335445    -0.56900
O1015       O  0.13970430  0.65960092  0.25027440    -0.58100
C1016       C  0.14014747  0.60468881  0.28739272     0.74500
O1017       O  0.17072296  0.60569872  0.22869053    -0.59300
C1018       C  0.15061759  0.66467332  0.23540669     0.74500
C1019       C  0.19225683  0.64022314  0.28262417     0.76900
Cd1020     Cd  0.15942082  0.62838763  0.25701191     1.37500
O1021       O  0.13018728  0.61861945  0.27894658    -0.58100
O1022       O  0.17570690  0.64957215  0.28197389    -0.56900
C1023       C  0.15283475  0.60006967  0.22491724     0.76800
O1024       O  0.19449959  0.62597343  0.27006288    -0.59300
O1025       O  0.15823731  0.60262572  0.28198283    -0.57800
O1026       O  0.16525009  0.65323516  0.23129264    -0.57800
O1027       O  0.13916078  0.60756676  0.23577842    -0.56900
O1028       O  0.12950116  0.51074362  0.10387143    -0.58100
C1029       C  0.12773896  0.54361061  0.16340099     0.74500
O1030       O  0.07421626  0.52908501  0.13650155    -0.59300
C1031       C  0.11638565  0.49918298  0.09607513     0.74500
C1032       C  0.11680968  0.47993827  0.15748878     0.76900
Cd1033     Cd  0.10962184  0.51627751  0.13520262     1.37500
O1034       O  0.13697005  0.53971205  0.14706639    -0.58100
O1035       O  0.13034582  0.49008298  0.14877179    -0.56900
C1036       C  0.07840336  0.54444296  0.12588286     0.76800
O1037       O  0.09890018  0.48644965  0.15586214    -0.59300
O1038       O  0.11126561  0.53451960  0.16619901    -0.57800
O1039       O  0.10034636  0.49658555  0.10603300    -0.57800
O1040       O  0.09619454  0.54560019  0.11919796    -0.56900
O1041       O  0.25180681  0.64249000  0.36093458    -0.58100
C1042       C  0.28209383  0.63625407  0.41600423     0.74500
O1043       O  0.27474703  0.69924780  0.39285264    -0.59300
C1044       C  0.24227761  0.65621219  0.35174883     0.74500
C1045       C  0.22316436  0.66749857  0.41296541     0.76900
Cd1046     Cd  0.26024511  0.66415317  0.39061533     1.37500
O1047       O  0.28242109  0.63431570  0.39703830    -0.58100
O1048       O  0.22581724  0.65507165  0.39881352    -0.56900
C1049       C  0.28958441  0.69528185  0.38155211     0.76800
O1050       O  0.23761096  0.67942003  0.41662173    -0.59300
O1051       O  0.27121799  0.65020251  0.42282166    -0.57800
O1052       O  0.24181230  0.67322567  0.36026280    -0.57800
O1053       O  0.29056013  0.67749116  0.37502920    -0.56900
O1054       O  0.11192026  0.63529541  0.49908789    -0.58100
C1055       C  0.15912393  0.64420030  0.46396559     0.74500
O1056       O  0.15348427  0.61135890  0.52525531    -0.59300
C1057       C  0.10591289  0.62306311  0.51245522     0.74500
C1058       C  0.13261169  0.57906486  0.46543785     0.76900
Cd1059     Cd  0.14189093  0.61400251  0.49010838     1.37500
O1060       O  0.15987928  0.64608195  0.48288036    -0.58100
O1061       O  0.12005424  0.59271885  0.46935587    -0.56900
C1062       C  0.17198515  0.60970108  0.52143971     0.76800
O1063       O  0.14964006  0.58080763  0.47379203    -0.59300
O1064       O  0.14809861  0.63018936  0.45741600    -0.57800
O1065       O  0.11619588  0.60728105  0.51462073    -0.57800
O1066       O  0.17659506  0.60819582  0.50301534    -0.56900
O1067       O  0.26157712  0.63842087  0.63525730    -0.58100
C1068       C  0.22904513  0.63346802  0.58093371     0.74500
O1069       O  0.23784734  0.69489547  0.60307506    -0.59300
C1070       C  0.27122994  0.65209184  0.64445505     0.74500
C1071       C  0.28943332  0.66175357  0.58339784     0.76900
Cd1072     Cd  0.25257503  0.66005089  0.60608665     1.37500
O1073       O  0.22797465  0.63209755  0.59992033    -0.58100
O1074       O  0.28579106  0.64859394  0.59661019    -0.56900
C1075       C  0.22319674  0.69102370  0.61468446     0.76800
O1076       O  0.27609505  0.67514820  0.58084229    -0.59300
O1077       O  0.24162703  0.64589025  0.57409954    -0.57800
O1078       O  0.27139472  0.66925450  0.63626219    -0.57800
O1079       O  0.22276922  0.67356232  0.62204581    -0.56900
O1080       O  0.39850913  0.63233628  0.49410354    -0.58100
C1081       C  0.35268122  0.63871619  0.53074769     0.74500
O1082       O  0.33459279  0.60543073  0.49172260    -0.59300
C1083       C  0.40633258  0.61967609  0.48214714     0.74500
C1084       C  0.37825582  0.57589268  0.52868540     0.76900
Cd1085     Cd  0.36965962  0.60986306  0.50323398     1.37500
O1086       O  0.35190015  0.64168472  0.51196258    -0.58100
O1087       O  0.39066715  0.58978596  0.52515944    -0.56900
C1088       C  0.33839040  0.60619920  0.47310577     0.76800
O1089       O  0.36184511  0.57657681  0.51904976    -0.59300
O1090       O  0.36369263  0.62439169  0.53645736    -0.57800
O1091       O  0.39731511  0.60302996  0.48045086    -0.57800
O1092       O  0.35677592  0.60634375  0.46834716    -0.56900
O1093       O  0.63864051  0.16080852  0.74860093    -0.58100
C1094       C  0.63694593  0.10842829  0.78663801     0.74500
O1095       O  0.66957202  0.10615378  0.72675848    -0.59300
C1096       C  0.64915601  0.16548235  0.73334379     0.74500
C1097       C  0.69221254  0.13985030  0.77810396     0.76900
Cd1098     Cd  0.65757978  0.12893740  0.75467505     1.37500
O1099       O  0.62693177  0.11991026  0.77516114    -0.58100
O1100       O  0.67668514  0.15073638  0.77680122    -0.56900
C1101       C  0.65212139  0.09897292  0.72387483     0.76800
O1102       O  0.69249053  0.12408176  0.76732026    -0.59300
O1103       O  0.65566314  0.10766902  0.78362126    -0.57800
O1104       O  0.66297316  0.15336526  0.72851924    -0.57800
O1105       O  0.63825855  0.10576576  0.73492710    -0.56900
O1106       O  0.63430215  0.98461202  0.84769892    -0.58100
C1107       C  0.61510857  0.02453289  0.89850996     0.74500
O1108       O  0.59376194  0.03694511  0.83942968    -0.59300
C1109       C  0.62641022  0.98237371  0.83041075     0.74500
C1110       C  0.57489244  0.97982337  0.86906896     0.76900
Cd1111     Cd  0.60654947  0.00762952  0.85947948     1.37500
O1112       O  0.62795625  0.01329848  0.88988164    -0.58100
O1113       O  0.59240354  0.97900389  0.87643267    -0.56900
C1114       C  0.61109214  0.04497673  0.83844592     0.76800
O1115       O  0.57126314  0.99436867  0.85725032    -0.59300
O1116       O  0.59852119  0.02687440  0.88945551    -0.57800
O1117       O  0.61029584  0.99188170  0.82724016    -0.57800
O1118       O  0.62524446  0.03574947  0.84712426    -0.56900
O1119       O  0.63440413  0.86429443  0.74553263    -0.58100
C1120       C  0.63423588  0.91642939  0.70756594     0.74500
O1121       O  0.66842033  0.91852384  0.76597232    -0.59300
C1122       C  0.64503351  0.85867650  0.76034708     0.74500
C1123       C  0.68891072  0.88361893  0.71459811     0.76900
Cd1124     Cd  0.65509294  0.89520334  0.73898768     1.37500
O1125       O  0.62430813  0.90597347  0.72005114    -0.58100
O1126       O  0.67264253  0.87375235  0.71526015    -0.56900
C1127       C  0.65114132  0.92583780  0.76944978     0.76800
O1128       O  0.69033358  0.89852043  0.72648542    -0.59300
O1129       O  0.65313213  0.91590972  0.70917261    -0.57800
O1130       O  0.65989059  0.86973444  0.76469461    -0.57800
O1131       O  0.63679074  0.91885264  0.75918577    -0.56900
O1132       O  0.63457252  0.03994314  0.64592672    -0.58100
C1133       C  0.61549982  0.99884566  0.59642431     0.74500
O1134       O  0.59245722  0.98920762  0.65553205    -0.59300
C1135       C  0.62681700  0.04215263  0.66327813     0.74500
C1136       C  0.57526453  0.04532161  0.62406140     0.76900
Cd1137     Cd  0.60643945  0.01717852  0.63448357     1.37500
O1138       O  0.62820043  0.01056907  0.60462936    -0.58100
O1139       O  0.59288216  0.04592400  0.61690739    -0.56900
C1140       C  0.60918137  0.97997832  0.65589077     0.76800
O1141       O  0.57137489  0.03087506  0.63591523    -0.59300
O1142       O  0.59882759  0.99674925  0.60540758    -0.57800
O1143       O  0.61084928  0.03245621  0.66667690    -0.57800
O1144       O  0.62360886  0.98801941  0.64647595    -0.56900
O1145       O  0.88536459  0.01090152  0.39012550    -0.58100
C1146       C  0.88867273  0.04020235  0.32986398     0.74500
O1147       O  0.94279492  0.02973670  0.36071223    -0.59300
C1148       C  0.89822577  0.00030152  0.39946655     0.74500
C1149       C  0.90212872  0.97883998  0.33961808     0.76900
Cd1150     Cd  0.90754931  0.01636323  0.36044224     1.37500
O1151       O  0.88012611  0.03823061  0.34688001    -0.58100
O1152       O  0.88833521  0.98825140  0.34870370    -0.56900
C1153       C  0.93814633  0.04526729  0.37088756     0.76800
O1154       O  0.91965351  0.98652074  0.34044515    -0.59300
O1155       O  0.90529198  0.03127092  0.32760914    -0.57800
O1156       O  0.91522669  0.99823006  0.39109935    -0.57800
O1157       O  0.91995654  0.04672329  0.37631419    -0.56900
O1158       O  0.87867736  0.15616004  0.24687785    -0.58100
C1159       C  0.87735132  0.10464405  0.20573768     0.74500
O1160       O  0.84613222  0.10213442  0.26495449    -0.59300
C1161       C  0.86866334  0.15975136  0.26276886     0.74500
C1162       C  0.82476008  0.13889399  0.21498190     0.76900
Cd1163     Cd  0.85849925  0.12561985  0.23829321     1.37500
O1164       O  0.88777597  0.11718811  0.21573940    -0.58100
O1165       O  0.84142044  0.14809274  0.21533691    -0.56900
C1166       C  0.86334649  0.09426231  0.26734382     0.76800
O1167       O  0.82293651  0.12405916  0.22683732    -0.59300
O1168       O  0.85908829  0.10291173  0.21064251    -0.57800
O1169       O  0.85444436  0.14776818  0.26671497    -0.57800
O1170       O  0.87734650  0.10077934  0.25627310    -0.56900
O1171       O  0.88528941  0.90240727  0.27744229    -0.58100
C1172       C  0.86465516  0.85853416  0.23145975     0.74500
O1173       O  0.82113265  0.89714977  0.26593144    -0.59300
C1174       C  0.87575477  0.91663834  0.28593100     0.74500
C1175       C  0.86409802  0.92356451  0.22247416     0.76900
Cd1176     Cd  0.85659807  0.89469338  0.25394861     1.37500
O1177       O  0.87644697  0.86407262  0.24546405    -0.58100
O1178       O  0.87758448  0.91588314  0.23340718    -0.56900
C1179       C  0.82290497  0.88285616  0.27847479     0.76800
O1180       O  0.84614657  0.91804237  0.22603503    -0.59300
O1181       O  0.84937647  0.86944500  0.22848682    -0.57800
O1182       O  0.85810645  0.91994496  0.27974052    -0.57800
O1183       O  0.83957122  0.87368489  0.27854425    -0.56900
O1184       O  0.88058789  0.98192577  0.14352199    -0.58100
C1185       C  0.90076525  0.02314186  0.09199412     0.74500
O1186       O  0.91997321  0.03443225  0.15091489    -0.59300
C1187       C  0.88953501  0.97899705  0.16020399     0.74500
C1188       C  0.93853606  0.97649243  0.12035438     0.76900
Cd1189     Cd  0.90787993  0.00490683  0.13071829     1.37500
O1190       O  0.88759682  0.01153912  0.09964304    -0.58100
O1191       O  0.92044252  0.97503054  0.11461388    -0.56900
C1192       C  0.90233426  0.04165832  0.15252219     0.76800
O1193       O  0.94303953  0.99186127  0.13084747    -0.59300
O1194       O  0.91703549  0.02503811  0.10172158    -0.57800
O1195       O  0.90585700  0.98841762  0.16283595    -0.57800
O1196       O  0.88830861  0.03184153  0.14418793    -0.56900
O1197       O  0.75749287  0.87968694  0.35187154    -0.58100
C1198       C  0.72810283  0.88333421  0.41195254     0.74500
O1199       O  0.73698514  0.82560056  0.38599037    -0.59300
C1200       C  0.76919994  0.86647198  0.34452942     0.74500
C1201       C  0.78867353  0.86598659  0.40423809     0.76900
Cd1202     Cd  0.75127498  0.86050060  0.38338330     1.37500
O1203       O  0.72877698  0.88909005  0.39372036    -0.58100
O1204       O  0.77970010  0.87962731  0.39451724    -0.56900
C1205       C  0.72193984  0.82973136  0.37493923     0.76800
O1206       O  0.78048222  0.84868151  0.40419906    -0.59300
O1207       O  0.73787483  0.86762493  0.41621133    -0.57800
O1208       O  0.77140762  0.85053569  0.35468413    -0.57800
O1209       O  0.72117759  0.84739539  0.36799371    -0.56900
O1210       O  0.65341126  0.88036553  0.52112332    -0.58100
C1211       C  0.60805965  0.90295531  0.48239522     0.74500
O1212       O  0.64947033  0.94746095  0.51874155    -0.59300
C1213       C  0.66190083  0.88919085  0.53580242     0.74500
C1214       C  0.67581688  0.91168881  0.47453984     0.76900
Cd1215     Cd  0.64412273  0.91301817  0.50445429     1.37500
O1216       O  0.61360953  0.89190320  0.49691132    -0.58100
O1217       O  0.67490037  0.90028305  0.48963515    -0.56900
C1218       C  0.63353062  0.94692499  0.52923447     0.76800
O1219       O  0.66251028  0.92522972  0.47351467    -0.59300
O1220       O  0.61913092  0.91788166  0.47854085    -0.57800
O1221       O  0.66073693  0.90812518  0.53613784    -0.57800
O1222       O  0.62239257  0.93171490  0.52686060    -0.56900
O1223       O  0.90131306  0.89356943  0.49642152    -0.58100
C1224       C  0.85043845  0.89340775  0.45757182     0.74500
O1225       O  0.84790833  0.92499487  0.51915449    -0.59300
C1226       C  0.90702084  0.90425878  0.51119658     0.74500
C1227       C  0.88038946  0.94885667  0.46663735     0.76900
Cd1228     Cd  0.87021095  0.91389956  0.49021400     1.37500
O1229       O  0.86256376  0.88364503  0.46860220    -0.58100
O1230       O  0.89191525  0.93386307  0.46842456    -0.56900
C1231       C  0.83975186  0.90781102  0.52064539     0.76800
O1232       O  0.86446809  0.94863902  0.47717454    -0.59300
O1233       O  0.84860499  0.91190034  0.46136828    -0.57800
O1234       O  0.89577181  0.91885680  0.51586248    -0.57800
O1235       O  0.84575082  0.89459561  0.50842155    -0.56900
O1236       O  0.78180680  0.88693018  0.59855312    -0.58100
C1237       C  0.74197182  0.86611215  0.64825949     0.74500
O1238       O  0.73251448  0.84435336  0.58829617    -0.59300
C1239       C  0.78470692  0.87914810  0.58131008     0.74500
C1240       C  0.78907824  0.82749919  0.62071375     0.76900
Cd1241     Cd  0.76039007  0.85794944  0.61006039     0.99100
O1242       O  0.75396706  0.87886232  0.64056280    -0.58100
O1243       O  0.79012877  0.84551944  0.62671170    -0.56900
C1244       C  0.72340105  0.86114752  0.58823364     0.76800
O1245       O  0.77398978  0.82293235  0.60989778    -0.59300
O1246       O  0.73962882  0.84980402  0.63869749    -0.57800
O1247       O  0.77631457  0.86241006  0.57806280    -0.57800
O1248       O  0.73148098  0.87527751  0.59807186    -0.56900
C1249       C  0.82161687  0.91337768  0.55374526    -0.13700
C1250       C  0.82416456  0.90263499  0.53568265     0.08500
C1251       C  0.81254279  0.88536477  0.53239008    -0.13700
C1252       C  0.79938089  0.87838466  0.54702253    -0.13700
C1253       C  0.79744328  0.88837969  0.56551991     0.08500
C1254       C  0.80836528  0.90623071  0.56864440    -0.13700
H1255       H  0.83040456  0.92675682  0.55665121     0.12500
H1256       H  0.81395271  0.87687178  0.51855854     0.12500
H1257       H  0.79107683  0.86472660  0.54396129     0.12500
H1258       H  0.80708261  0.91430098  0.58272845     0.12500
C1259       C  0.67844314  0.88910499  0.56910749    -0.13700
C1260       C  0.67380726  0.87871549  0.55134846     0.08500
C1261       C  0.68340952  0.86029470  0.54746613    -0.13700
C1262       C  0.69878300  0.85345853  0.56026915    -0.13700
C1263       C  0.70461659  0.86502268  0.57700001     0.08500
C1264       C  0.69361040  0.88235157  0.58175305    -0.13700
H1265       H  0.67115458  0.90321440  0.57263695     0.12500
H1266       H  0.68012752  0.85201982  0.53383291     0.12500
H1267       H  0.70697749  0.83997828  0.55632848     0.12500
H1268       H  0.69747751  0.89139732  0.59473633     0.12500
C1269       C  0.81574670  0.89007091  0.41327814    -0.13700
C1270       C  0.80727366  0.87087932  0.41552820     0.08500
C1271       C  0.81554780  0.85777421  0.42988916    -0.13700
C1272       C  0.83095777  0.86441836  0.44278800    -0.13700
C1273       C  0.83811903  0.88424784  0.44148835     0.08500
C1274       C  0.83087725  0.89667548  0.42612177    -0.13700
H1275       H  0.80997707  0.90046794  0.40219283     0.12500
H1276       H  0.80937797  0.84286796  0.43189126     0.12500
H1277       H  0.83625351  0.85457531  0.45458901     0.12500
H1278       H  0.83624658  0.91196413  0.42464661     0.12500
C1279       C  0.72007476  0.88879516  0.44802297    -0.13700
C1280       C  0.71642664  0.89374112  0.42783170     0.08500
C1281       C  0.70077758  0.90718509  0.42334383    -0.13700
C1282       C  0.68817298  0.91436959  0.43874992    -0.13700
C1283       C  0.69111270  0.90817657  0.45876072     0.08500
C1284       C  0.70761278  0.89590592  0.46325698    -0.13700
H1285       H  0.73219742  0.87872951  0.45204064     0.12500
H1286       H  0.69767215  0.91129040  0.40791725     0.12500
H1287       H  0.67548208  0.92376143  0.43486705     0.12500
H1288       H  0.71038181  0.89101839  0.47852760     0.12500
C1289       C  0.80835675  0.85948354  0.30393955    -0.13700
C1290       C  0.80695474  0.87751602  0.29311386     0.08500
C1291       C  0.79155202  0.89110008  0.29802102    -0.13700
C1292       C  0.77858478  0.88723090  0.31423430    -0.13700
C1293       C  0.78068301  0.86960418  0.32565346     0.08500
C1294       C  0.79532379  0.85552922  0.31991083    -0.13700
H1295       H  0.82000135  0.84868167  0.30049440     0.12500
H1296       H  0.79016873  0.90516374  0.28998638     0.12500
H1297       H  0.76743500  0.89833428  0.31827626     0.12500
H1298       H  0.79733248  0.84176411  0.32833389     0.12500
C1299       C  0.88924586  0.94594700  0.20630045    -0.13700
C1300       C  0.86964800  0.93814737  0.20654057     0.08500
C1301       C  0.85619391  0.94403155  0.19132642    -0.13700
C1302       C  0.86243375  0.95728806  0.17604395    -0.13700
C1303       C  0.88210834  0.96505313  0.17597390     0.08500
C1304       C  0.89532981  0.95924655  0.19135252    -0.13700
H1305       H  0.90001913  0.94176768  0.21775311     0.12500
H1306       H  0.84101783  0.93818429  0.19108897     0.12500
H1307       H  0.85191636  0.96150433  0.16438383     0.12500
H1308       H  0.91061653  0.96481309  0.19174160     0.12500
C1309       C  0.90570967  0.08571916  0.18903648    -0.13700
C1310       C  0.88547504  0.09174934  0.18957045     0.08500
C1311       C  0.87186167  0.08299545  0.17606306    -0.13700
C1312       C  0.87782601  0.06750578  0.16339687    -0.13700
C1313       C  0.89760386  0.06023743  0.16386613     0.08500
C1314       C  0.91175102  0.06997905  0.17623891    -0.13700
H1315       H  0.91649316  0.09224363  0.19933592     0.12500
H1316       H  0.85622483  0.08749506  0.17593892     0.12500
H1317       H  0.86660494  0.06062959  0.15381641     0.12500
H1318       H  0.92714981  0.06479871  0.17675587     0.12500
C1319       C  0.90918146  0.98013949  0.42913138    -0.13700
C1320       C  0.89369419  0.98995930  0.41870742     0.08500
C1321       C  0.87387835  0.98804890  0.42582557    -0.13700
C1322       C  0.86959530  0.97568425  0.44238850    -0.13700
C1323       C  0.88502633  0.96495444  0.45199282     0.08500
C1324       C  0.90489750  0.96772863  0.44549670    -0.13700
H1325       H  0.92463211  0.98138213  0.42412231     0.12500
H1326       H  0.86162790  0.99533090  0.41805094     0.12500
H1327       H  0.85409056  0.97361398  0.44693804     0.12500
H1328       H  0.91707506  0.95968653  0.45261254     0.12500
C1329       C  0.91077183  0.95138999  0.31463644    -0.13700
C1330       C  0.89716911  0.96034572  0.32814566     0.08500
C1331       C  0.87754143  0.95263636  0.32935665    -0.13700
C1332       C  0.87115984  0.93749460  0.31639114    -0.13700
C1333       C  0.88426348  0.92940765  0.30201267     0.08500
C1334       C  0.90436608  0.93590554  0.30168963    -0.13700
H1335       H  0.92599016  0.95699772  0.31339062     0.12500
H1336       H  0.86671335  0.95896964  0.33973062     0.12500
H1337       H  0.85562738  0.93265196  0.31705236     0.12500
H1338       H  0.91470610  0.92996464  0.29061386     0.12500
C1339       C  0.89092334  0.05363405  0.29505811    -0.13700
C1340       C  0.88033126  0.05249294  0.31330141     0.08500
C1341       C  0.86262638  0.06379041  0.31555099    -0.13700
C1342       C  0.85624245  0.07671375  0.30013703    -0.13700
C1343       C  0.86761125  0.07859092  0.28241919     0.08500
C1344       C  0.88469220  0.06655302  0.27987693    -0.13700
H1345       H  0.90447840  0.04497411  0.29269135     0.12500
H1346       H  0.85410258  0.06310309  0.32940288     0.12500
H1347       H  0.84302729  0.08588967  0.30244502     0.12500
H1348       H  0.89362961  0.06753485  0.26628804     0.12500
C1349       C  0.60540742  0.97379099  0.57046808    -0.13700
C1350       C  0.61976951  0.98745340  0.57771889     0.08500
C1351       C  0.63830865  0.98899961  0.56765630    -0.13700
C1352       C  0.64255255  0.97658647  0.55107920    -0.13700
C1353       C  0.62838285  0.96237957  0.54442624     0.08500
C1354       C  0.60964710  0.96143104  0.55408636    -0.13700
H1355       H  0.59097004  0.97217389  0.57785202     0.12500
H1356       H  0.64967219  0.99935011  0.57292273     0.12500
H1357       H  0.65720359  0.97753044  0.54401027     0.12500
H1358       H  0.59842273  0.95065519  0.54938700     0.12500
C1359       C  0.70363472  0.85986838  0.68968234    -0.13700
C1360       C  0.70470962  0.87833955  0.69980311     0.08500
C1361       C  0.71947493  0.89229436  0.69396297    -0.13700
C1362       C  0.73220360  0.88818837  0.67760026    -0.13700
C1363       C  0.73047227  0.86999181  0.66697972     0.08500
C1364       C  0.71637608  0.85571977  0.67355769    -0.13700
H1365       H  0.69244886  0.84878947  0.69382513     0.12500
H1366       H  0.72054385  0.90671365  0.70140762     0.12500
H1367       H  0.74292481  0.89948182  0.67287176     0.12500
H1368       H  0.71465207  0.84153974  0.66577575     0.12500
C1369       C  0.60700982  0.94004047  0.69646367    -0.13700
C1370       C  0.62482615  0.92947961  0.69233684     0.08500
C1371       C  0.63551423  0.93385401  0.67471205    -0.13700
C1372       C  0.62939575  0.94939952  0.66216947    -0.13700
C1373       C  0.61254878  0.96110240  0.66704619     0.08500
C1374       C  0.60089424  0.95582160  0.68386710    -0.13700
H1375       H  0.59864374  0.93704725  0.71010585     0.12500
H1376       H  0.64922817  0.92586411  0.67113903     0.12500
H1377       H  0.63850974  0.95293657  0.64914446     0.12500
H1378       H  0.58787315  0.96465270  0.68797150     0.12500
C1379       C  0.62470690  0.96804370  0.79595942    -0.13700
C1380       C  0.63477247  0.96916441  0.81448830     0.08500
C1381       C  0.65176930  0.95697430  0.81754566    -0.13700
C1382       C  0.65800975  0.94340085  0.80252458    -0.13700
C1383       C  0.64715516  0.94173933  0.78445711     0.08500
C1384       C  0.63073103  0.95448124  0.78124306    -0.13700
H1385       H  0.61167505  0.97730229  0.79295544     0.12500
H1386       H  0.65983439  0.95754513  0.83165324     0.12500
H1387       H  0.67069389  0.93363087  0.80537065     0.12500
H1388       H  0.62219938  0.95365705  0.76740660     0.12500
C1389       C  0.62994956  0.07199563  0.71126995    -0.13700
C1390       C  0.64746504  0.08339692  0.70870230     0.08500
C1391       C  0.65920545  0.08037655  0.69135343    -0.13700
C1392       C  0.65293063  0.06666288  0.67646783    -0.13700
C1393       C  0.63502807  0.05567163  0.67898150     0.08500
C1394       C  0.62389605  0.05829567  0.69672989    -0.13700
H1395       H  0.62066924  0.07384049  0.72453030     0.12500
H1396       H  0.67276987  0.08905030  0.68901625     0.12500
H1397       H  0.66181240  0.06492529  0.66293485     0.12500
H1398       H  0.61007515  0.05008509  0.69925865     0.12500
C1399       C  0.60842964  0.08757962  0.80043119    -0.13700
C1400       C  0.62790141  0.09559042  0.80233088     0.08500
C1401       C  0.64030633  0.08868388  0.81787619    -0.13700
C1402       C  0.63414287  0.07305214  0.83025969    -0.13700
C1403       C  0.61538657  0.06382053  0.82744643     0.08500
C1404       C  0.60219406  0.07172036  0.81294816    -0.13700
H1405       H  0.59862184  0.09259841  0.78847178     0.12500
H1406       H  0.65531024  0.09470267  0.81982365     0.12500
H1407       H  0.64454157  0.06757400  0.84149771     0.12500
H1408       H  0.58760915  0.06492491  0.81052720     0.12500
C1409       C  0.32429933  0.64930416  0.57836096    -0.13700
C1410       C  0.30796482  0.66050081  0.57116925     0.08500
C1411       C  0.30855403  0.66782887  0.55137473    -0.13700
C1412       C  0.32429624  0.66233415  0.53843986    -0.13700
C1413       C  0.33972997  0.64961007  0.54521675     0.08500
C1414       C  0.34007164  0.64404424  0.56558250    -0.13700
H1415       H  0.32433263  0.64362302  0.59361747     0.12500
H1416       H  0.29612389  0.67646175  0.54545753     0.12500
H1417       H  0.32357545  0.66678562  0.52280027     0.12500
H1418       H  0.35174616  0.63429609  0.57131122     0.12500
C1419       C  0.20773575  0.61296062  0.53263220    -0.13700
C1420       C  0.18731421  0.61104486  0.53756422     0.08500
C1421       C  0.18145641  0.61330837  0.55779597    -0.13700
C1422       C  0.19550696  0.61882562  0.57249300    -0.13700
C1423       C  0.21557010  0.62245988  0.56713050     0.08500
C1424       C  0.22169101  0.61876426  0.54724650    -0.13700
H1425       H  0.21272786  0.61129963  0.51721989     0.12500
H1426       H  0.16581483  0.61194775  0.56206871     0.12500
H1427       H  0.19037476  0.62176615  0.58767506     0.12500
H1428       H  0.23710361  0.62144464  0.54275957     0.12500
C1429       C  0.20447077  0.67263749  0.44538275    -0.13700
C1430       C  0.20448305  0.66694680  0.42503016     0.08500
C1431       C  0.18729234  0.65769219  0.41701303    -0.13700
C1432       C  0.17127480  0.65233953  0.42947095    -0.13700
C1433       C  0.17221419  0.65591287  0.45026914     0.08500
C1434       C  0.18844750  0.66711210  0.45794458    -0.13700
H1435       H  0.21753660  0.67980479  0.45193736     0.12500
H1436       H  0.18679194  0.65338085  0.40131188     0.12500
H1437       H  0.15892699  0.64388518  0.42305656     0.12500
H1438       H  0.18961112  0.67007636  0.47391715     0.12500
C1439       C  0.28943307  0.62266341  0.45016953    -0.13700
C1440       C  0.29451395  0.62394269  0.42970046     0.08500
C1441       C  0.31292620  0.61595059  0.42321973    -0.13700
C1442       C  0.32681154  0.60862719  0.43725357    -0.13700
C1443       C  0.32232065  0.60882871  0.45793000     0.08500
C1444       C  0.30311218  0.61499664  0.46411676    -0.13700
H1445       H  0.27527257  0.62860042  0.45555391     0.12500
H1446       H  0.31722010  0.61678906  0.40753377     0.12500
H1447       H  0.34149317  0.60394536  0.43204681     0.12500
H1448       H  0.29919159  0.61535729  0.47992352     0.12500
C1449       C  0.22152818  0.63092447  0.30467367    -0.13700
C1450       C  0.20742172  0.64521620  0.29818395     0.08500
C1451       C  0.20617469  0.66360155  0.30846401    -0.13700
C1452       C  0.21815110  0.66734520  0.32529594    -0.13700
C1453       C  0.23149818  0.65270182  0.33250494     0.08500
C1454       C  0.23336558  0.63456581  0.32179549    -0.13700
H1455       H  0.22268452  0.61653987  0.29713462     0.12500
H1456       H  0.19545621  0.67489762  0.30385656     0.12500
H1457       H  0.21634806  0.68149350  0.33315396     0.12500
H1458       H  0.24355568  0.62302692  0.32694718     0.12500
C1459       C  0.16069564  0.58002738  0.19334509    -0.13700
C1460       C  0.14745959  0.58544604  0.20895061     0.08500
C1461       C  0.12811318  0.57706231  0.20919224    -0.13700
C1462       C  0.12205979  0.56360474  0.19439231    -0.13700
C1463       C  0.13507697  0.55811082  0.17871199     0.08500
C1464       C  0.15448520  0.56653067  0.17821315    -0.13700
H1465       H  0.17566888  0.58637130  0.19272443     0.12500
H1466       H  0.11751851  0.58085232  0.22095856     0.12500
H1467       H  0.10697321  0.55754962  0.19524331     0.12500
H1468       H  0.16482000  0.56260296  0.16627690     0.12500
C1469       C  0.11480875  0.43562757  0.19387954    -0.13700
C1470       C  0.13536582  0.43100953  0.19541107     0.08500
C1471       C  0.14904783  0.44109413  0.18297404    -0.13700
C1472       C  0.14265422  0.45618886  0.17006006    -0.13700
C1473       C  0.12236226  0.46188951  0.16934128     0.08500
C1474       C  0.10834344  0.45108736  0.18096207    -0.13700
H1475       H  0.10397101  0.42807663  0.20337307     0.12500
H1476       H  0.16495069  0.43769734  0.18367145     0.12500
H1477       H  0.15385531  0.46394152  0.16117087     0.12500
H1478       H  0.09258208  0.45507278  0.18062798     0.12500
C1479       C  0.13833736  0.53646714  0.42777878    -0.13700
C1480       C  0.11900469  0.53566615  0.41931007     0.08500
C1481       C  0.10380529  0.54770943  0.42766988    -0.13700
C1482       C  0.10808576  0.56102618  0.44336615    -0.13700
C1483       C  0.12766851  0.56268361  0.45109359     0.08500
C1484       C  0.14264219  0.54985958  0.44352308    -0.13700
H1485       H  0.15036800  0.52738319  0.42164621     0.12500
H1486       H  0.08873018  0.54738146  0.42159537     0.12500
H1487       H  0.09615848  0.57060022  0.44894957     0.12500
H1488       H  0.15785678  0.55079645  0.44914828     0.12500
C1489       C  0.13852708  0.56686312  0.32907190    -0.13700
C1490       C  0.11896360  0.55908515  0.32758283     0.08500
C1491       C  0.10538411  0.56817644  0.31417640    -0.13700
C1492       C  0.11171905  0.58408509  0.30176244    -0.13700
C1493       C  0.13170117  0.59091168  0.30258759     0.08500
C1494       C  0.14481016  0.58246725  0.31670848    -0.13700
H1495       H  0.14931650  0.56043549  0.33939520     0.12500
H1496       H  0.09020305  0.56251054  0.31274752     0.12500
H1497       H  0.10139131  0.59027222  0.29083685     0.12500
H1498       H  0.16025304  0.58752389  0.31774555     0.12500
C1499       C  0.15479035  0.45502448  0.32096388    -0.13700
C1500       C  0.13498111  0.46243271  0.32043224     0.08500
C1501       C  0.12220710  0.45594883  0.30493109    -0.13700
C1502       C  0.12886703  0.44255989  0.29033267    -0.13700
C1503       C  0.14862070  0.43523164  0.29054373     0.08500
C1504       C  0.16161835  0.44159197  0.30601300    -0.13700
H1505       H  0.16498332  0.45974606  0.33274384     0.12500
H1506       H  0.10684998  0.46121100  0.30403037     0.12500
H1507       H  0.11842329  0.43806399  0.27867636     0.12500
H1508       H  0.17691190  0.43611731  0.30660603     0.12500
C1509       C  0.03160734  0.44185418  0.36843056    -0.13700
C1510       C  0.03540366  0.42871688  0.38452801     0.08500
C1511       C  0.05149872  0.43295633  0.39752512    -0.13700
C1512       C  0.06398812  0.44940787  0.39412860    -0.13700
C1513       C  0.06068643  0.46220339  0.37771248     0.08500
C1514       C  0.04412077  0.45853638  0.36509654    -0.13700
H1515       H  0.01927048  0.43900550  0.35821150     0.12500
H1516       H  0.05479978  0.42324583  0.41014480     0.12500
H1517       H  0.07657132  0.45184487  0.40416286     0.12500
H1518       H  0.04129912  0.46809958  0.35225434     0.12500
C1519       C  0.89108353  0.20760616  0.28475414    -0.13700
C1520       C  0.87990073  0.20955545  0.30259873     0.08500
C1521       C  0.86535705  0.19499637  0.30716612    -0.13700
C1522       C  0.86188362  0.17895172  0.29417508    -0.13700
C1523       C  0.87295301  0.17690638  0.27630050     0.08500
C1524       C  0.88769704  0.19133169  0.27172627    -0.13700
H1525       H  0.90258807  0.21849353  0.28101866     0.12500
H1526       H  0.85656907  0.19600861  0.32083490     0.12500
H1527       H  0.85046730  0.16807553  0.29821501     0.12500
H1528       H  0.89651034  0.19007443  0.25810400     0.12500
C1529       C  0.92384411  0.32096920  0.37209969    -0.13700
C1530       C  0.92701419  0.30990435  0.35439978     0.08500
C1531       C  0.94341614  0.31488062  0.34200029    -0.13700
C1532       C  0.95709574  0.32985530  0.34798259    -0.13700
C1533       C  0.95449097  0.33985015  0.36643748     0.08500
C1534       C  0.93746273  0.33566090  0.37808121    -0.13700
H1535       H  0.91127870  0.31761746  0.38188598     0.12500
H1536       H  0.94628190  0.30646239  0.32835047     0.12500
H1537       H  0.97031205  0.33267365  0.33891509     0.12500
H1538       H  0.93514003  0.34319976  0.39234626     0.12500
C1539       C  0.96056476  0.09135824  0.39547359    -0.13700
C1540       C  0.97852897  0.09408654  0.38471597     0.08500
C1541       C  0.98371039  0.07997777  0.36983146    -0.13700
C1542       C  0.97097909  0.06363471  0.36564945    -0.13700
C1543       C  0.95275864  0.06129889  0.37611874     0.08500
C1544       C  0.94782493  0.07527892  0.39115867    -0.13700
H1545       H  0.95611618  0.10188968  0.40706637     0.12500
H1546       H  0.99748972  0.08166262  0.36133511     0.12500
H1547       H  0.97511191  0.05315365  0.35390597     0.12500
H1548       H  0.93393690  0.07389686  0.39954300     0.12500
C1549       C  0.95095198  0.19460471  0.40028063    -0.13700
C1550       C  0.96917186  0.19364619  0.38958494     0.08500
C1551       C  0.97203967  0.20642299  0.37309908    -0.13700
C1552       C  0.95684668  0.21929139  0.36687044    -0.13700
C1553       C  0.93821507  0.21964416  0.37680603     0.08500
C1554       C  0.93550161  0.20748830  0.39387037    -0.13700
H1555       H  0.94835607  0.18481655  0.41300519     0.12500
H1556       H  0.98595353  0.20614344  0.36465001     0.12500
H1557       H  0.95956690  0.22858166  0.35379026     0.12500
H1558       H  0.92131159  0.20748720  0.40182934     0.12500
C1559       C  0.15683219  0.31846048  0.30404218    -0.13700
C1560       C  0.14050340  0.30574504  0.29994246     0.08500
C1561       C  0.12904762  0.30916191  0.28251512    -0.13700
C1562       C  0.13349716  0.32547693  0.26984096    -0.13700
C1563       C  0.14963608  0.33842575  0.27429662     0.08500
C1564       C  0.16138882  0.33447351  0.29136599    -0.13700
H1565       H  0.16598019  0.31621870  0.31729376     0.12500
H1566       H  0.11628094  0.29965033  0.27905868     0.12500
H1567       H  0.12417245  0.32814840  0.25680692     0.12500
H1568       H  0.17392039  0.34411537  0.29528804     0.12500
C1569       C  0.08033411  0.18387695  0.38258092    -0.13700
C1570       C  0.06460765  0.17730194  0.37016868     0.08500
C1571       C  0.06338207  0.18465689  0.35040334    -0.13700
C1572       C  0.07664347  0.19971973  0.34384156    -0.13700
C1573       C  0.09130190  0.20745616  0.35696784     0.08500
C1574       C  0.09355101  0.19871002  0.37604495    -0.13700
H1575       H  0.08176448  0.17830530  0.39781343     0.12500
H1576       H  0.05133192  0.17984990  0.34057646     0.12500
H1577       H  0.07466029  0.20611349  0.32901806     0.12500
H1578       H  0.10491383  0.20407450  0.38640435     0.12500
C1579       C  0.08223031  0.31393361  0.39040799    -0.13700
C1580       C  0.07970681  0.30211227  0.37301229     0.08500
C1581       C  0.06167995  0.30375718  0.36216032    -0.13700
C1582       C  0.04678581  0.31713822  0.36809876    -0.13700
C1583       C  0.04927774  0.32918091  0.38522646     0.08500
C1584       C  0.06702412  0.32730805  0.39655857    -0.13700
H1585       H  0.09597337  0.31302743  0.39904420     0.12500
H1586       H  0.05913095  0.29489742  0.34872627     0.12500
H1587       H  0.03326101  0.31815215  0.35911143     0.12500
H1588       H  0.06936024  0.33655673  0.40976448     0.12500
C1589       C  0.90884956  0.56681066  0.81352005    -0.13700
C1590       C  0.89950649  0.54783776  0.81329908     0.08500
C1591       C  0.88430617  0.54415295  0.79915956    -0.13700
C1592       C  0.87771681  0.55931586  0.78637789    -0.13700
C1593       C  0.88611997  0.57865576  0.78729796     0.08500
C1594       C  0.90218988  0.58214583  0.80059248    -0.13700
H1595       H  0.92056652  0.57008466  0.82433333     0.12500
H1596       H  0.87689221  0.52968796  0.79848252     0.12500
H1597       H  0.86551146  0.55599088  0.77613252     0.12500
H1598       H  0.90900752  0.59687286  0.80157375     0.12500
C1599       C  0.85731608  0.55983418  0.67545960    -0.13700
C1600       C  0.87524072  0.56379721  0.66495913     0.08500
C1601       C  0.88522456  0.58202282  0.66833837    -0.13700
C1602       C  0.87858843  0.59519480  0.68318223    -0.13700
C1603       C  0.86183529  0.59044412  0.69510604     0.08500
C1604       C  0.85064146  0.57311359  0.69051580    -0.13700
H1605       H  0.84942706  0.54579239  0.67319600     0.12500
H1606       H  0.89897651  0.58552702  0.66033990     0.12500
H1607       H  0.88733982  0.60858243  0.68614449     0.12500
H1608       H  0.83766502  0.56910587  0.69949059     0.12500
C1609       C  0.84779560  0.44819056  0.80900320    -0.13700
C1610       C  0.85850389  0.43031196  0.80576587     0.08500
C1611       C  0.87351345  0.42481920  0.81950764    -0.13700
C1612       C  0.87909810  0.43779597  0.83499447    -0.13700
C1613       C  0.86997304  0.45669045  0.83694616     0.08500
C1614       C  0.85354514  0.46136062  0.82449086    -0.13700
H1615       H  0.83615705  0.45275425  0.79859890     0.12500
H1616       H  0.88183281  0.41099548  0.81751876     0.12500
H1617       H  0.89168579  0.43367526  0.84444124     0.12500
H1618       H  0.84628009  0.47585011  0.82560144     0.12500
C1619       C  0.90282214  0.43871772  0.69899897    -0.13700
C1620       C  0.88734629  0.44311730  0.71272185     0.08500
C1621       C  0.87948582  0.46266219  0.71330578    -0.13700
C1622       C  0.88613092  0.47720730  0.69984766    -0.13700
C1623       C  0.90089148  0.47265479  0.68550344     0.08500
C1624       C  0.90962648  0.45345628  0.68550429    -0.13700
H1625       H  0.90907792  0.42374888  0.69818067     0.12500
H1626       H  0.86765950  0.46660288  0.72379093     0.12500
H1627       H  0.87922634  0.49191482  0.70023763     0.12500
H1628       H  0.92090456  0.44955541  0.67442767     0.12500
C1629       C  0.85893303  0.31475842  0.79910579    -0.13700
C1630       C  0.87821269  0.30629835  0.79916650     0.08500
C1631       C  0.89288204  0.31403983  0.78608565    -0.13700
C1632       C  0.88865794  0.33089181  0.77417295    -0.13700
C1633       C  0.86962835  0.34001402  0.77502004     0.08500
C1634       C  0.85466233  0.33133578  0.78710960    -0.13700
H1635       H  0.84733922  0.30906466  0.80900480     0.12500
H1636       H  0.90792972  0.30786287  0.78598804     0.12500
H1637       H  0.90045718  0.33722834  0.76494280     0.12500
H1638       H  0.83981970  0.33791955  0.78804423     0.12500
C1639       C  0.94270594  0.20452373  0.84488370    -0.13700
C1640       C  0.93915141  0.22087527  0.85784319     0.08500
C1641       C  0.94978299  0.22205762  0.87598387    -0.13700
C1642       C  0.96321387  0.20711984  0.88145430    -0.13700
C1643       C  0.96637954  0.19033428  0.86905611     0.08500
C1644       C  0.95617377  0.18922479  0.85054031    -0.13700
H1645       H  0.93467931  0.20328887  0.83078461     0.12500
H1646       H  0.94757143  0.23455763  0.88619568     0.12500
H1647       H  0.97084948  0.20861023  0.89574843     0.12500
H1648       H  0.95838993  0.17648903  0.84064032     0.12500
C1649       C  0.08561236  0.20457849  0.89103346    -0.13700
C1650       C  0.09080786  0.20606397  0.87058992     0.08500
C1651       C  0.08161743  0.19307918  0.85672928    -0.13700
C1652       C  0.06657037  0.17991614  0.86280049    -0.13700
C1653       C  0.06019399  0.17938296  0.88292486     0.08500
C1654       C  0.07031466  0.19133088  0.89716983    -0.13700
H1655       H  0.09246601  0.21445965  0.90200619     0.12500
H1656       H  0.08546535  0.19370592  0.84090578     0.12500
H1657       H  0.05933855  0.17072521  0.85146495     0.12500
H1658       H  0.06579779  0.19111338  0.91281111     0.12500
C1659       C  0.97547284  0.44613250  0.89820881    -0.13700
C1660       C  0.98561247  0.43626464  0.88251918     0.08500
C1661       C  0.98335568  0.44350414  0.86278446    -0.13700
C1662       C  0.97010275  0.45941201  0.85872934    -0.13700
C1663       C  0.95893635  0.46827981  0.87436650     0.08500
C1664       C  0.96231408  0.46189509  0.89418381    -0.13700
H1665       H  0.97703755  0.44110928  0.91359257     0.12500
H1666       H  0.99101279  0.43621784  0.85037889     0.12500
H1667       H  0.96778359  0.46400815  0.84330915     0.12500
H1668       H  0.95407790  0.46851550  0.90659922     0.12500
C1669       C  0.95141506  0.34512102  0.86877967    -0.13700
C1670       C  0.96029494  0.34374953  0.88787784     0.08500
C1671       C  0.95295643  0.32937847  0.90153437    -0.13700
C1672       C  0.93777568  0.31588094  0.89564266    -0.13700
C1673       C  0.92992565  0.31659057  0.87602728     0.08500
C1674       C  0.93650272  0.33169852  0.86292334    -0.13700
H1675       H  0.95654330  0.35614827  0.85797005     0.12500
H1676       H  0.95957618  0.32796544  0.91633151     0.12500
H1677       H  0.93303744  0.30422862  0.90595061     0.12500
H1678       H  0.93060949  0.33267511  0.84777150     0.12500
C1679       C  0.06408514  0.33526398  0.85247068    -0.13700
C1680       C  0.05392102  0.33371351  0.87096155     0.08500
C1681       C  0.05681749  0.31641568  0.88268547    -0.13700
C1682       C  0.06986077  0.30129458  0.87643521    -0.13700
C1683       C  0.08027640  0.30284976  0.85814605     0.08500
C1684       C  0.07708782  0.31987556  0.84605227    -0.13700
H1685       H  0.06211182  0.34838421  0.84309214     0.12500
H1686       H  0.04920779  0.31463768  0.89697521     0.12500
H1687       H  0.07188115  0.28835466  0.88606692     0.12500
H1688       H  0.08498176  0.32149545  0.83190991     0.12500
C1689       C  0.19748617  0.32070662  0.84861125    -0.13700
C1690       C  0.21169981  0.31634028  0.86354916     0.08500
C1691       C  0.20998182  0.29817452  0.87419434    -0.13700
C1692       C  0.19375827  0.28510520  0.87053315    -0.13700
C1693       C  0.17918909  0.28992205  0.85599170     0.08500
C1694       C  0.18155433  0.30765718  0.84481847    -0.13700
H1695       H  0.19842397  0.33450384  0.84006536     0.12500
H1696       H  0.22071853  0.29445228  0.88583218     0.12500
H1697       H  0.19240246  0.27148960  0.87929777     0.12500
H1698       H  0.17070672  0.31182343  0.83343723     0.12500
C1699       C  0.31933214  0.39097001  0.91043459    -0.13700
C1700       C  0.30975597  0.37237752  0.91314793     0.08500
C1701       C  0.31712220  0.35922392  0.92795701    -0.13700
C1702       C  0.33299381  0.36520889  0.94062186    -0.13700
C1703       C  0.34156663  0.38440561  0.93859713     0.08500
C1704       C  0.33495484  0.39691274  0.92301376    -0.13700
H1705       H  0.31420634  0.40135990  0.89902913     0.12500
H1706       H  0.30997801  0.34482458  0.93040429     0.12500
H1707       H  0.33770078  0.35539328  0.95269571     0.12500
H1708       H  0.34136251  0.41174234  0.92106121     0.12500
C1709       C  0.07134900  0.41039946  0.93922616    -0.13700
C1710       C  0.05706288  0.39556154  0.94375256     0.08500
C1711       C  0.05897538  0.38481089  0.96185393    -0.13700
C1712       C  0.07536478  0.38834429  0.97473818    -0.13700
C1713       C  0.08992161  0.40286098  0.96982059     0.08500
C1714       C  0.08747134  0.41405179  0.95209683    -0.13700
H1715       H  0.07031472  0.41898148  0.92544349     0.12500
H1716       H  0.04822173  0.37322656  0.96569100     0.12500
H1717       H  0.07680790  0.37955616  0.98834289     0.12500
H1718       H  0.09835634  0.42536767  0.94783610     0.12500
C1719       C  0.14131986  0.47811708  0.04906246    -0.13700
C1720       C  0.12739873  0.46328768  0.04335204     0.08500
C1721       C  0.10911955  0.46192591  0.05379450    -0.13700
C1722       C  0.10524910  0.47437364  0.07023106    -0.13700
C1723       C  0.11963666  0.48836318  0.07682114     0.08500
C1724       C  0.13752787  0.49049876  0.06575453    -0.13700
H1725       H  0.15560949  0.47939558  0.04133063     0.12500
H1726       H  0.09808751  0.45070880  0.04971266     0.12500
H1727       H  0.09124775  0.47238632  0.07833621     0.12500
H1728       H  0.14885821  0.50115584  0.07043671     0.12500
C1729       C  0.19484081  0.38136696  0.95574691    -0.13700
C1730       C  0.18687496  0.40085853  0.95588798     0.08500
C1731       C  0.19251086  0.41425605  0.94054280    -0.13700
C1732       C  0.20565719  0.40803596  0.92516359    -0.13700
C1733       C  0.21349087  0.38842233  0.92510319     0.08500
C1734       C  0.20799377  0.37528225  0.94066713    -0.13700
H1735       H  0.19091530  0.37069901  0.96738470     0.12500
H1736       H  0.18654066  0.42936550  0.94027657     0.12500
H1737       H  0.20966845  0.41849526  0.91338055     0.12500
H1738       H  0.21373343  0.36008240  0.94115258     0.12500
C1739       C  0.24108998  0.38986073  0.18017741    -0.13700
C1740       C  0.23879095  0.37280893  0.16785064     0.08500
C1741       C  0.22397988  0.35864432  0.17294671    -0.13700
C1742       C  0.21105943  0.36190346  0.18916705    -0.13700
C1743       C  0.21266273  0.37932536  0.20097836     0.08500
C1744       C  0.22819159  0.39303602  0.19667890    -0.13700
H1745       H  0.25239059  0.40101458  0.17669501     0.12500
H1746       H  0.22178896  0.34529391  0.16387781     0.12500
H1747       H  0.19935448  0.35099936  0.19208369     0.12500
H1748       H  0.22976880  0.40664780  0.20547449     0.12500
C1749       C  0.20715673  0.39611325  0.07672332    -0.13700
C1750       C  0.21402919  0.37617415  0.07638152     0.08500
C1751       C  0.20417344  0.36222646  0.06388346    -0.13700
C1752       C  0.18842080  0.36844096  0.05123998    -0.13700
C1753       C  0.18252708  0.38869374  0.05081343     0.08500
C1754       C  0.19174203  0.40230324  0.06402034    -0.13700
H1755       H  0.21421617  0.40722496  0.08630282     0.12500
H1756       H  0.20911266  0.34675644  0.06333497     0.12500
H1757       H  0.18161872  0.35770540  0.04107069     0.12500
H1758       H  0.18740719  0.41797960  0.06409547     0.12500
C1759       C  0.31109109  0.37863232  0.04759243    -0.13700
C1760       C  0.30833872  0.39053220  0.06483295     0.08500
C1761       C  0.31900049  0.40874900  0.06637102    -0.13700
C1762       C  0.33229552  0.41470044  0.05095271    -0.13700
C1763       C  0.33523671  0.40236624  0.03398509     0.08500
C1764       C  0.32435730  0.38439127  0.03251685    -0.13700
H1765       H  0.30316430  0.36454000  0.04578817     0.12500
H1766       H  0.31719756  0.41823272  0.07948038     0.12500
H1767       H  0.34056287  0.42862522  0.05248952     0.12500
H1768       H  0.32613466  0.37460138  0.01961770     0.12500
C1769       C  0.98562701  0.57700990  0.63116225    -0.13700
C1770       C  0.98606837  0.58475652  0.61148626     0.08500
C1771       C  0.97517481  0.57479551  0.59637891    -0.13700
C1772       C  0.96281922  0.55854200  0.60107876    -0.13700
C1773       C  0.96112381  0.55175064  0.62098323     0.08500
C1774       C  0.97326005  0.56057525  0.63587014    -0.13700
H1775       H  0.99391505  0.58432847  0.64309766     0.12500
H1776       H  0.97535269  0.58022013  0.58102344     0.12500
H1777       H  0.95378544  0.55192678  0.58926411     0.12500
H1778       H  0.97218932  0.55566500  0.65136485     0.12500
C1779       C  0.05745447  0.64457147  0.53423285    -0.13700
C1780       C  0.05505949  0.63251109  0.55143876     0.08500
C1781       C  0.06930332  0.61751909  0.55536396    -0.13700
C1782       C  0.08553849  0.61456950  0.54252196    -0.13700
C1783       C  0.08818608  0.62664773  0.52543754     0.08500
C1784       C  0.07400544  0.64174179  0.52136696    -0.13700
H1785       H  0.04680727  0.65640235  0.53097999     0.12500
H1786       H  0.06799075  0.60804650  0.56852345     0.12500
H1787       H  0.09623284  0.60289720  0.54619257     0.12500
H1788       H  0.07570475  0.65128385  0.50830689     0.12500
C1789       C  0.82460401  0.78274866  0.61916936    -0.13700
C1790       C  0.83838631  0.78797605  0.63434844     0.08500
C1791       C  0.83500081  0.80553056  0.64557121    -0.13700
C1792       C  0.81867572  0.81790465  0.64138347    -0.13700
C1793       C  0.80511952  0.81302746  0.62597006     0.08500
C1794       C  0.80801637  0.79514177  0.61507745    -0.13700
H1795       H  0.82680358  0.76927847  0.61029760     0.12500
H1796       H  0.84524267  0.80999478  0.65740451     0.12500
H1797       H  0.81683521  0.83153419  0.65010389     0.12500
H1798       H  0.79784619  0.79107677  0.60304413     0.12500
C1799       C  0.85813691  0.70647642  0.69733782    -0.13700
C1800       C  0.87721658  0.71548865  0.69756619     0.08500
C1801       C  0.89178216  0.70806355  0.71093870    -0.13700
C1802       C  0.88760401  0.69126748  0.72305213    -0.13700
C1803       C  0.86873941  0.68173150  0.72207740     0.08500
C1804       C  0.85394602  0.68988974  0.70944556    -0.13700
H1805       H  0.84659710  0.71182760  0.68723303     0.12500
H1806       H  0.90670528  0.71458499  0.71129023     0.12500
H1807       H  0.89930598  0.68534700  0.73262399     0.12500
H1808       H  0.83922109  0.68301118  0.70835631     0.12500
C1809       C  0.93285031  0.70528985  0.60006915    -0.13700
C1810       C  0.92627328  0.70560567  0.62015540     0.08500
C1811       C  0.93321734  0.69086320  0.63344971    -0.13700
C1812       C  0.94739307  0.67682234  0.62725976    -0.13700
C1813       C  0.95525365  0.67732068  0.60766000     0.08500
C1814       C  0.94736114  0.69123882  0.59385699    -0.13700
H1815       H  0.92776151  0.71662692  0.58959722     0.12500
H1816       H  0.92823318  0.69068820  0.64896772     0.12500
H1817       H  0.95295578  0.66617556  0.63821108     0.12500
H1818       H  0.95318387  0.69198431  0.57866944     0.12500
C1819       C  0.94744174  0.90877623  0.55083135    -0.13700
C1820       C  0.95953508  0.89193587  0.54707922     0.08500
C1821       C  0.95499691  0.87959418  0.53050562    -0.13700
C1822       C  0.93811051  0.88364281  0.51846488    -0.13700
C1823       C  0.92563868  0.90015974  0.52276936     0.08500
C1824       C  0.93077964  0.91284590  0.53885154    -0.13700
H1825       H  0.95058860  0.91864425  0.56340714     0.12500
H1826       H  0.96401472  0.86644761  0.52733371     0.12500
H1827       H  0.93457313  0.87364705  0.50610589     0.12500
H1828       H  0.92164335  0.92578302  0.54251055     0.12500
C1829       C  0.96093156  0.81389640  0.60985861    -0.13700
C1830       C  0.96354085  0.83173701  0.62084174     0.08500
C1831       C  0.95302388  0.83415400  0.63904898    -0.13700
C1832       C  0.93987260  0.81905942  0.64586848    -0.13700
C1833       C  0.93692193  0.80153404  0.63440369     0.08500
C1834       C  0.94775922  0.79910228  0.61647579    -0.13700
H1835       H  0.96882919  0.81144037  0.59582959     0.12500
H1836       H  0.95479776  0.84773058  0.64785022     0.12500
H1837       H  0.93163765  0.82130859  0.65972700     0.12500
H1838       H  0.94594459  0.78571351  0.60737824     0.12500
C1839       C  0.18787361  0.73607588  0.61281230    -0.13700
C1840       C  0.17455368  0.73148129  0.62861052     0.08500
C1841       C  0.17792890  0.71406102  0.63996351    -0.13700
C1842       C  0.19387981  0.70129692  0.63548244    -0.13700
C1843       C  0.20711187  0.70563462  0.61961065     0.08500
C1844       C  0.20411133  0.72328233  0.60841752    -0.13700
H1845       H  0.18566885  0.74940864  0.60384105     0.12500
H1846       H  0.16799339  0.71004192  0.65225194     0.12500
H1847       H  0.19576510  0.68789582  0.64443767     0.12500
H1848       H  0.21405033  0.72696747  0.59603038     0.12500
C1849       C  0.07242537  0.70449852  0.64794967    -0.13700
C1850       C  0.07558212  0.72109533  0.63525411     0.08500
C1851       C  0.06475875  0.72229229  0.61720370    -0.13700
C1852       C  0.05157354  0.70709842  0.61159159    -0.13700
C1853       C  0.04883074  0.69011003  0.62378182     0.08500
C1854       C  0.05919754  0.68901543  0.64218447    -0.13700
H1855       H  0.08061713  0.70320027  0.66194276     0.12500
H1856       H  0.06672661  0.73490731  0.60712274     0.12500
H1857       H  0.04383095  0.70852222  0.59734697     0.12500
H1858       H  0.05731266  0.67612753  0.65191164     0.12500
C1859       C  0.07977245  0.81378477  0.59698646    -0.13700
C1860       C  0.08723441  0.81481644  0.61672873     0.08500
C1861       C  0.08039311  0.83006030  0.62955633    -0.13700
C1862       C  0.06559815  0.84336846  0.62324994    -0.13700
C1863       C  0.05709095  0.84165249  0.60399347     0.08500
C1864       C  0.06470126  0.82711382  0.59066192    -0.13700
H1865       H  0.08470857  0.80199894  0.58691308     0.12500
H1866       H  0.08599216  0.83123150  0.64481753     0.12500
H1867       H  0.06023075  0.85451969  0.63382365     0.12500
H1868       H  0.05836192  0.82543551  0.57575771     0.12500
C1869       C  0.63868892  0.55091917  0.18949328    -0.13700
C1870       C  0.62084122  0.55266508  0.17845988     0.08500
C1871       C  0.60831126  0.56931045  0.18187916    -0.13700
C1872       C  0.61405524  0.58433267  0.19564097    -0.13700
C1873       C  0.63223561  0.58268183  0.20631190     0.08500
C1874       C  0.64423720  0.56561448  0.20328679    -0.13700
H1875       H  0.64856213  0.53818134  0.18731650     0.12500
H1876       H  0.59448706  0.57100603  0.17348582     0.12500
H1877       H  0.60451019  0.59732551  0.19767560     0.12500
H1878       H  0.65828509  0.56376437  0.21127271     0.12500
C1879       C  0.62361284  0.58470599  0.32514253    -0.13700
C1880       C  0.63651704  0.56936282  0.33156877     0.08500
C1881       C  0.65622955  0.56875750  0.32401153    -0.13700
C1882       C  0.66231666  0.58231421  0.30900159    -0.13700
C1883       C  0.64877145  0.59665125  0.30148785     0.08500
C1884       C  0.62968868  0.59824052  0.31037803    -0.13700
H1885       H  0.60840062  0.58565489  0.33087263     0.12500
H1886       H  0.66642541  0.55700941  0.32867991     0.12500
H1887       H  0.67712669  0.58078308  0.30244590     0.12500
H1888       H  0.61898796  0.60929723  0.30515051     0.12500
C1889       C  0.66612494  0.44545594  0.18898385    -0.13700
C1890       C  0.65241448  0.43239739  0.19841871     0.08500
C1891       C  0.63254490  0.43173206  0.19135956    -0.13700
C1892       C  0.62606998  0.44470064  0.17636246    -0.13700
C1893       C  0.63926985  0.45866110  0.16773962     0.08500
C1894       C  0.65958140  0.45850450  0.17364774    -0.13700
H1895       H  0.68156147  0.44622235  0.19404918     0.12500
H1896       H  0.62161215  0.42169040  0.19802241     0.12500
H1897       H  0.61039472  0.44428285  0.17201507     0.12500
H1898       H  0.67006343  0.46917106  0.16725630     0.12500
C1899       C  0.61598076  0.44151860  0.30121028    -0.13700
C1900       C  0.63504523  0.44297226  0.29213114     0.08500
C1901       C  0.64688946  0.45996888  0.29613521    -0.13700
C1902       C  0.64030309  0.47478661  0.30931560    -0.13700
C1903       C  0.62158012  0.47323602  0.31886776     0.08500
C1904       C  0.60922980  0.45664057  0.31443258    -0.13700
H1905       H  0.60647711  0.42863552  0.29832111     0.12500
H1906       H  0.66157413  0.46172402  0.28934436     0.12500
H1907       H  0.65010390  0.48744995  0.31222766     0.12500
H1908       H  0.59471354  0.45507354  0.32161203     0.12500
C1909       C  0.54956145  0.44301339  0.09182130    -0.13700
C1910       C  0.53560529  0.43593184  0.10599008     0.08500
C1911       C  0.53388293  0.44595460  0.12454821    -0.13700
C1912       C  0.54666991  0.46210167  0.12915879    -0.13700
C1913       C  0.56146732  0.46823484  0.11537006     0.08500
C1914       C  0.56237836  0.45888130  0.09648200    -0.13700
H1915       H  0.55122154  0.43572294  0.07734064     0.12500
H1916       H  0.52324626  0.44083791  0.13574277     0.12500
H1917       H  0.54571853  0.46904048  0.14387413     0.12500
H1918       H  0.57353404  0.46336409  0.08551366     0.12500
C1919       C  0.46258459  0.38064639  0.02711623    -0.13700
C1920       C  0.46564157  0.39288085  0.04413113     0.08500
C1921       C  0.45313163  0.40956207  0.04701015    -0.13700
C1922       C  0.43751031  0.41359649  0.03372414    -0.13700
C1923       C  0.43369039  0.40095330  0.01724214     0.08500
C1924       C  0.44660973  0.38457471  0.01380441    -0.13700
H1925       H  0.47202194  0.36763427  0.02455189     0.12500
H1926       H  0.45515696  0.41935179  0.05984216     0.12500
H1927       H  0.42795186  0.42639953  0.03683238     0.12500
H1928       H  0.44407267  0.37460309  0.00121078     0.12500
C1929       C  0.62821272  0.31535520  0.21078008    -0.13700
C1930       C  0.64187831  0.30991292  0.19559133     0.08500
C1931       C  0.66033327  0.32008157  0.19441731    -0.13700
C1932       C  0.66474005  0.33580693  0.20757118    -0.13700
C1933       C  0.65076635  0.34193240  0.22217645     0.08500
C1934       C  0.63258685  0.33129263  0.22393583    -0.13700
H1935       H  0.61380453  0.30785005  0.21196363     0.12500
H1936       H  0.67118399  0.31627475  0.18291834     0.12500
H1937       H  0.67890133  0.34366449  0.20577718     0.12500
H1938       H  0.62153138  0.33568106  0.23501380     0.12500
C1939       C  0.57248851  0.34835934  0.12018648    -0.13700
C1940       C  0.56263893  0.34514981  0.10178436     0.08500
C1941       C  0.56916389  0.32938904  0.08928120    -0.13700
C1942       C  0.58421636  0.31614497  0.09591025    -0.13700
C1943       C  0.59273058  0.31852031  0.11511871     0.08500
C1944       C  0.58724279  0.33515165  0.12680907    -0.13700
H1945       H  0.56804345  0.36053522  0.13003689     0.12500
H1946       H  0.56183073  0.32659046  0.07501721     0.12500
H1947       H  0.58814721  0.30332002  0.08669635     0.12500
H1948       H  0.59371125  0.33739900  0.14159346     0.12500
C1949       C  0.33377622  0.28950708  0.11611583    -0.13700
C1950       C  0.34630626  0.29338361  0.13271869     0.08500
C1951       C  0.34187522  0.30980182  0.14522403    -0.13700
C1952       C  0.32564032  0.32230367  0.14109149    -0.13700
C1953       C  0.31322024  0.31868956  0.12442212     0.08500
C1954       C  0.31727457  0.30202745  0.11205474    -0.13700
H1955       H  0.33683241  0.27696831  0.10621892     0.12500
H1956       H  0.35115733  0.31321958  0.15817060     0.12500
H1957       H  0.32291480  0.33498411  0.15091472     0.12500
H1958       H  0.30803767  0.29901112  0.09898058     0.12500
C1959       C  0.44639251  0.32208052  0.14823405    -0.13700
C1960       C  0.44528882  0.30358895  0.13803615     0.08500
C1961       C  0.45755317  0.30042506  0.12119444    -0.13700
C1962       C  0.46989116  0.31559434  0.11401524    -0.13700
C1963       C  0.47038260  0.33446829  0.12340704     0.08500
C1964       C  0.45887304  0.33751078  0.14091405    -0.13700
H1965       H  0.43700023  0.32488788  0.16125274     0.12500
H1966       H  0.45719574  0.28630880  0.11311620     0.12500
H1967       H  0.47873672  0.31258470  0.10066055     0.12500
H1968       H  0.45908514  0.35187265  0.14852437     0.12500
C1969       C  0.45523470  0.18165371  0.12777962    -0.13700
C1970       C  0.46251949  0.18202824  0.10797131     0.08500
C1971       C  0.45387553  0.19547944  0.09415985    -0.13700
C1972       C  0.43896041  0.20905038  0.10047457    -0.13700
C1973       C  0.43265994  0.20932308  0.12066413     0.08500
C1974       C  0.44055952  0.19511048  0.13402876    -0.13700
H1975       H  0.46141125  0.17139161  0.13877379     0.12500
H1976       H  0.45923637  0.19609742  0.07879853     0.12500
H1977       H  0.43318574  0.21997285  0.08991607     0.12500
H1978       H  0.43590569  0.19486167  0.14964079     0.12500
C1979       C  0.57640381  0.20775547  0.14836858    -0.13700
C1980       C  0.58161750  0.22318798  0.13488387     0.08500
C1981       C  0.57342990  0.22292981  0.11545975    -0.13700
C1982       C  0.56063373  0.20761085  0.10943046    -0.13700
C1983       C  0.55564709  0.19189401  0.12255648     0.08500
C1984       C  0.56355668  0.19209025  0.14218511    -0.13700
H1985       H  0.58256523  0.20758221  0.16343289     0.12500
H1986       H  0.57702588  0.23459716  0.10471211     0.12500
H1987       H  0.55484130  0.20800430  0.09421625     0.12500
H1988       H  0.55986661  0.18020132  0.15264227     0.12500
C1989       C  0.58663398  0.11174763  0.03901785    -0.13700
C1990       C  0.59070954  0.12440613  0.02266404     0.08500
C1991       C  0.57795943  0.14084975  0.01907259    -0.13700
C1992       C  0.56180394  0.14483047  0.03209876    -0.13700
C1993       C  0.55837447  0.13251098  0.04891973     0.08500
C1994       C  0.57076697  0.11579213  0.05199523    -0.13700
H1995       H  0.59604707  0.09888030  0.04215275     0.12500
H1996       H  0.58073440  0.15082390  0.00652962     0.12500
H1997       H  0.55248892  0.15787920  0.02945626     0.12500
H1998       H  0.56842432  0.10595232  0.06473359     0.12500
C1999       C  0.60448663  0.04802590  0.92580277    -0.13700
C2000       C  0.61922611  0.03528958  0.91767041     0.08500
C2001       C  0.63816103  0.03449232  0.92703351    -0.13700
C2002       C  0.64255329  0.04707719  0.94344550    -0.13700
C2003       C  0.62813981  0.06073648  0.95065111     0.08500
C2004       C  0.60889301  0.06061430  0.94201553    -0.13700
H2005       H  0.58968859  0.04893807  0.91907019     0.12500
H2006       H  0.64980217  0.02480862  0.92115851     0.12500
H2007       H  0.65755406  0.04688332  0.94977532     0.12500
H2008       H  0.59742868  0.07086100  0.94726656     0.12500
C2009       C  0.73486699  0.13467122  0.81557989    -0.13700
C2010       C  0.73444394  0.15359627  0.82497769     0.08500
C2011       C  0.72175626  0.16849854  0.81712375    -0.13700
C2012       C  0.70887648  0.16424829  0.80112585    -0.13700
C2013       C  0.70843886  0.14503981  0.79243271     0.08500
C2014       C  0.72200173  0.13044216  0.79937666    -0.13700
H2015       H  0.74447269  0.12288102  0.82130659     0.12500
H2016       H  0.72110648  0.18325910  0.82391891     0.12500
H2017       H  0.69866589  0.17584305  0.79605724     0.12500
H2018       H  0.72190398  0.11547452  0.79302352     0.12500
C2019       C  0.81649856  0.21011023  0.85278755    -0.13700
C2020       C  0.80521748  0.21245963  0.87044363     0.08500
C2021       C  0.81025367  0.22807099  0.88381416    -0.13700
C2022       C  0.82700923  0.24041623  0.87995150    -0.13700
C2023       C  0.83877542  0.23733380  0.86260154     0.08500
C2024       C  0.83294884  0.22238441  0.84889606    -0.13700
H2025       H  0.81288667  0.19838187  0.84210808     0.12500
H2026       H  0.80179578  0.23017024  0.89759574     0.12500
H2027       H  0.83108061  0.25189629  0.89072874     0.12500
H2028       H  0.84148343  0.21971700  0.83526745     0.12500
C2029       C  0.69562990  0.13774689  0.91053834    -0.13700
C2030       C  0.70537165  0.15611900  0.91402764     0.08500
C2031       C  0.69844908  0.16863669  0.92959174    -0.13700
C2032       C  0.68326289  0.16192521  0.94263071    -0.13700
C2033       C  0.67498593  0.14266284  0.94015637     0.08500
C2034       C  0.68064266  0.13108625  0.92348041    -0.13700
H2035       H  0.70041911  0.12792351  0.89846022     0.12500
H2036       H  0.70571535  0.18288727  0.93254659     0.12500
H2037       H  0.67916731  0.17105874  0.95547596     0.12500
H2038       H  0.67431425  0.11627312  0.92114316     0.12500
C2039       C  0.94453756  0.13703034  0.97320337    -0.13700
C2040       C  0.92820162  0.12519610  0.96678364     0.08500
C2041       C  0.92882370  0.11667865  0.94747971    -0.13700
C2042       C  0.94508072  0.12005461  0.93475315    -0.13700
C2043       C  0.96136527  0.13198444  0.94090155     0.08500
C2044       C  0.96106447  0.14034112  0.96036826    -0.13700
H2045       H  0.94451440  0.14370307  0.98807059     0.12500
H2046       H  0.91651492  0.10756096  0.94200532     0.12500
H2047       H  0.94471223  0.11342759  0.91986613     0.12500
H2048       H  0.97337791  0.14964427  0.96550988     0.12500
C2049       C  0.90764384  0.06252980  0.05160944    -0.13700
C2050       C  0.88944648  0.06154146  0.04096663     0.08500
C2051       C  0.87559782  0.04636984  0.04599440    -0.13700
C2052       C  0.87946780  0.03319734  0.06207775    -0.13700
C2053       C  0.89734024  0.03488136  0.07327096     0.08500
C2054       C  0.91156677  0.04935005  0.06742919    -0.13700
H2055       H  0.91865787  0.07395753  0.04812893     0.12500
H2056       H  0.86138485  0.04527478  0.03811381     0.12500
H2057       H  0.86823614  0.02220353  0.06617440     0.12500
H2058       H  0.92552490  0.05109237  0.07565027     0.12500
C2059       C  0.82437828  0.11161270  0.93988745    -0.13700
C2060       C  0.82605070  0.12204480  0.95823019     0.08500
C2061       C  0.81320569  0.13833161  0.96186388    -0.13700
C2062       C  0.79969149  0.14472198  0.94724190    -0.13700
C2063       C  0.79876352  0.13518355  0.92839668     0.08500
C2064       C  0.81088598  0.11821829  0.92499929    -0.13700
H2065       H  0.83411925  0.09900502  0.93671435     0.12500
H2066       H  0.81396766  0.14654662  0.97592685     0.12500
H2067       H  0.79044377  0.15768094  0.95051168     0.12500
H2068       H  0.81040896  0.11049160  0.91066455     0.12500
C2069       C  0.79836467  0.16706719  0.17368316    -0.13700
C2070       C  0.78388315  0.15310736  0.16725874     0.08500
C2071       C  0.78123376  0.13535311  0.17836475    -0.13700
C2072       C  0.79366153  0.13120946  0.19490085    -0.13700
C2073       C  0.80898836  0.14467515  0.20043220     0.08500
C2074       C  0.81079988  0.16287962  0.18999459    -0.13700
H2075       H  0.80072476  0.18097038  0.16555489     0.12500
H2076       H  0.77015351  0.12436943  0.17380998     0.12500
H2077       H  0.79199711  0.11699882  0.20264827     0.12500
H2078       H  0.82239341  0.17357693  0.19392729     0.12500
C2079       C  0.70960180  0.22829626  0.11400133    -0.13700
C2080       C  0.71336726  0.21162701  0.12638360     0.08500
C2081       C  0.70108141  0.20849202  0.14325893    -0.13700
C2082       C  0.68488792  0.22117612  0.14724615    -0.13700
C2083       C  0.68041247  0.23725981  0.13435259     0.08500
C2084       C  0.69317648  0.24095615  0.11789696    -0.13700
H2085       H  0.71879183  0.23101586  0.10086174     0.12500
H2086       H  0.70369420  0.19585726  0.15317240     0.12500
H2087       H  0.67551045  0.21799947  0.16015503     0.12500
H2088       H  0.69016111  0.25329895  0.10774405     0.12500
C2089       C  0.82234293  0.13841234  0.08036652    -0.13700
C2090       C  0.81151821  0.15605724  0.07641368     0.08500
C2091       C  0.81751873  0.16823759  0.06020811    -0.13700
C2092       C  0.83300887  0.16195393  0.04725917    -0.13700
C2093       C  0.84257113  0.14341222  0.05038142     0.08500
C2094       C  0.83761766  0.13215296  0.06748844    -0.13700
H2095       H  0.81831806  0.12883680  0.09288916     0.12500
H2096       H  0.80946549  0.18193561  0.05684277     0.12500
H2097       H  0.83646678  0.17082320  0.03406671     0.12500
H2098       H  0.84485130  0.11787259  0.07032419     0.12500
C2099       C  0.70682158  0.11726063  0.06725700    -0.13700
C2100       C  0.71727786  0.13550649  0.06492228     0.08500
C2101       C  0.71482625  0.14633280  0.04699007    -0.13700
C2102       C  0.70173764  0.13968914  0.03213387    -0.13700
C2103       C  0.69071335  0.12191867  0.03458821     0.08500
C2104       C  0.69365702  0.11044194  0.05209918    -0.13700
H2105       H  0.70848245  0.10855658  0.08089077     0.12500
H2106       H  0.72273295  0.16033129  0.04452386     0.12500
H2107       H  0.69997174  0.14877269  0.01875349     0.12500
H2108       H  0.68527404  0.09669256  0.05437572     0.12500
C2109       C  0.61909625  0.81196321  0.78127302    -0.13700
C2110       C  0.63140397  0.80762678  0.79790029     0.08500
C2111       C  0.64857079  0.81943738  0.80118668    -0.13700
C2112       C  0.65309821  0.83553960  0.78861533    -0.13700
C2113       C  0.64050438  0.84047359  0.77242902     0.08500
C2114       C  0.62356489  0.82834772  0.76867353    -0.13700
H2115       H  0.60573630  0.80313066  0.77842026     0.12500
H2116       H  0.65845915  0.81639435  0.81375126     0.12500
H2117       H  0.66633347  0.84441710  0.79188959     0.12500
H2118       H  0.61359504  0.83175579  0.75627721     0.12500
C2119       C  0.55066511  0.93654197  0.89609987    -0.13700
C2120       C  0.53611267  0.92993928  0.88231243     0.08500
C2121       C  0.53300947  0.94113359  0.86463515    -0.13700
C2122       C  0.54482953  0.95820067  0.86060762    -0.13700
C2123       C  0.56003559  0.96406749  0.87408674     0.08500
C2124       C  0.56250825  0.95326803  0.89199409    -0.13700
H2125       H  0.55337215  0.92841199  0.90992730     0.12500
H2126       H  0.52181401  0.93646032  0.85378753     0.12500
H2127       H  0.54270732  0.96623141  0.84661650     0.12500
H2128       H  0.57401287  0.95749573  0.90270612     0.12500
C2129       C  0.57248895  0.83298827  0.89593782    -0.13700
C2130       C  0.55202049  0.82803184  0.89760058     0.08500
C2131       C  0.54592856  0.80824496  0.89362219    -0.13700
C2132       C  0.55969344  0.79420685  0.88626375    -0.13700
C2133       C  0.57989630  0.79954108  0.88328108     0.08500
C2134       C  0.58638329  0.81875290  0.88908316    -0.13700
H2135       H  0.57755515  0.84815930  0.89890480     0.12500
H2136       H  0.53023741  0.80405307  0.89464531     0.12500
H2137       H  0.55433884  0.77945963  0.88194153     0.12500
H2138       H  0.60185963  0.82325109  0.88683673     0.12500
C2139       C  0.57535628  0.67612331  0.86203189    -0.13700
C2140       C  0.55527774  0.67649904  0.85553410     0.08500
C2141       C  0.54940476  0.69144920  0.84179913    -0.13700
C2142       C  0.56287796  0.70668868  0.83612940    -0.13700
C2143       C  0.58237339  0.70729322  0.84424116     0.08500
C2144       C  0.58869240  0.69137699  0.85653787    -0.13700
H2145       H  0.58042128  0.66482043  0.87255242     0.12500
H2146       H  0.53401711  0.69220216  0.83656591     0.12500
H2147       H  0.55758314  0.71875800  0.82663599     0.12500
H2148       H  0.60367761  0.69131297  0.86287761     0.12500
C2149       C  0.45409909  0.81396491  0.83835241    -0.13700
C2150       C  0.43415778  0.81422974  0.84527088     0.08500
C2151       C  0.42772600  0.83037931  0.85723428    -0.13700
C2152       C  0.44131938  0.84502574  0.86362171    -0.13700
C2153       C  0.46171315  0.84374577  0.85835683     0.08500
C2154       C  0.46781854  0.82857886  0.84492960    -0.13700
H2155       H  0.45945828  0.80163408  0.82918235     0.12500
H2156       H  0.41239617  0.83104342  0.86265923     0.12500
H2157       H  0.43609652  0.85657378  0.87383686     0.12500
H2158       H  0.48344299  0.82719358  0.84062274     0.12500
C2159       C  0.43146575  0.70495557  0.88952261    -0.13700
C2160       C  0.43759569  0.72356498  0.88172962     0.08500
C2161       C  0.45805178  0.72873542  0.88251322    -0.13700
C2162       C  0.47228150  0.71499334  0.88940308    -0.13700
C2163       C  0.46639142  0.69569761  0.89550157     0.08500
C2164       C  0.44577334  0.69108409  0.89630221    -0.13700
H2165       H  0.41580307  0.70058166  0.88905786     0.12500
H2166       H  0.46319350  0.74306035  0.87678436     0.12500
H2167       H  0.48802711  0.71904677  0.88870603     0.12500
H2168       H  0.44079001  0.67630564  0.90089171     0.12500
C2169       C  0.31463719  0.80200232  0.87858233    -0.13700
C2170       C  0.30813154  0.81599571  0.86419078     0.08500
C2171       C  0.31776806  0.81654088  0.84540815    -0.13700
C2172       C  0.33402860  0.80394619  0.84135377    -0.13700
C2173       C  0.34127184  0.79067315  0.85606672     0.08500
C2174       C  0.33115046  0.78951098  0.87460376    -0.13700
H2175       H  0.30758514  0.80139564  0.89326483     0.12500
H2176       H  0.31308984  0.82713561  0.83402276     0.12500
H2177       H  0.34141174  0.80516892  0.82686778     0.12500
H2178       H  0.33635811  0.77942448  0.88620982     0.12500
C2179       C  0.21628644  0.89538433  0.92944580    -0.13700
C2180       C  0.21827440  0.87557338  0.92252016     0.08500
C2181       C  0.20437161  0.86106194  0.92915453    -0.13700
C2182       C  0.18885024  0.86640653  0.94254758    -0.13700
C2183       C  0.18726335  0.88623744  0.94967426     0.08500
C2184       C  0.20111922  0.90060148  0.94285335    -0.13700
H2185       H  0.22665555  0.90697775  0.92464914     0.12500
H2186       H  0.20547514  0.84569909  0.92397762     0.12500
H2187       H  0.17834389  0.85503403  0.94755760     0.12500
H2188       H  0.20025729  0.91604400  0.94787810     0.12500
C2189       C  0.19328985  0.86958391  0.06580694    -0.13700
C2190       C  0.20554415  0.88359195  0.07572862     0.08500
C2191       C  0.20283438  0.90414089  0.07176666    -0.13700
C2192       C  0.18902856  0.91035622  0.05700627    -0.13700
C2193       C  0.17773155  0.89607567  0.04620442     0.08500
C2194       C  0.17956005  0.87572513  0.05132535    -0.13700
H2195       H  0.19480724  0.85366818  0.06873448     0.12500
H2196       H  0.21208355  0.91524722  0.07925821     0.12500
H2197       H  0.18783238  0.92615893  0.05345184     0.12500
H2198       H  0.17093479  0.86432320  0.04352750     0.12500
C2199       C  0.44571448  0.91156505  0.96470027    -0.13700
C2200       C  0.43691280  0.89619375  0.97616317     0.08500
C2201       C  0.44568110  0.87698789  0.97579877    -0.13700
C2202       C  0.46195448  0.87293752  0.96294983    -0.13700
C2203       C  0.46952142  0.88800618  0.95022618     0.08500
C2204       C  0.46175266  0.90750982  0.95185998    -0.13700
H2205       H  0.43952649  0.92659169  0.96481446     0.12500
H2206       H  0.43930451  0.86488020  0.98458024     0.12500
H2207       H  0.46769912  0.85776527  0.96199904     0.12500
H2208       H  0.46741341  0.91948602  0.94241704     0.12500
C2209       C  0.34507107  0.88296960  0.93788296    -0.13700
C2210       C  0.34417193  0.90190794  0.94716030     0.08500
C2211       C  0.32989158  0.91587606  0.94025002    -0.13700
C2212       C  0.31603697  0.91046136  0.92516890    -0.13700
C2213       C  0.31621258  0.89096809  0.91702864     0.08500
C2214       C  0.33121329  0.87754676  0.92315440    -0.13700
H2215       H  0.35595719  0.87189640  0.94265945     0.12500
H2216       H  0.32881190  0.93057025  0.94714503     0.12500
H2217       H  0.30451357  0.92102947  0.92076695     0.12500
H2218       H  0.33178784  0.86248084  0.91701247     0.12500
C2219       C  0.31395551  0.89080470  0.04017024    -0.13700
C2220       C  0.33217825  0.88025689  0.03900107     0.08500
C2221       C  0.33449920  0.86271556  0.05054320    -0.13700
C2222       C  0.31904106  0.85634458  0.06353052    -0.13700
C2223       C  0.30128108  0.86764135  0.06530798     0.08500
C2224       C  0.29882433  0.88467173  0.05320799    -0.13700
H2225       H  0.31153749  0.90429027  0.03142320     0.12500
H2226       H  0.34835369  0.85424909  0.04987850     0.12500
H2227       H  0.32129319  0.84315870  0.07275593     0.12500
H2228       H  0.28523947  0.89356451  0.05410332     0.12500
C2229       C  0.10692254  0.96708853  0.92320736    -0.13700
C2230       C  0.12058462  0.98215565  0.91762994     0.08500
C2231       C  0.13808016  0.98488543  0.92920241    -0.13700
C2232       C  0.14206383  0.97224097  0.94563878    -0.13700
C2233       C  0.12868468  0.95663939  0.95052268     0.08500
C2234       C  0.11097600  0.95445156  0.93933171    -0.13700
H2235       H  0.09326145  0.96462074  0.91472266     0.12500
H2236       H  0.14888672  0.99637887  0.92522953     0.12500
H2237       H  0.15592561  0.97410037  0.95395225     0.12500
H2238       H  0.10036341  0.94261020  0.94279717     0.12500
C2239       C  0.04339345  0.05839683  0.86444263    -0.13700
C2240       C  0.05890565  0.05355313  0.87795104     0.08500
C2241       C  0.06106224  0.06504271  0.89553418    -0.13700
C2242       C  0.04874347  0.08156761  0.89909629    -0.13700
C2243       C  0.03399750  0.08721833  0.88510445     0.08500
C2244       C  0.03107205  0.07517806  0.86794754    -0.13700
H2245       H  0.04144248  0.04984359  0.85071189     0.12500
H2246       H  0.07280327  0.06169383  0.90627308     0.12500
H2247       H  0.05137075  0.09042138  0.91252493     0.12500
H2248       H  0.01977617  0.07911688  0.85694665     0.12500
C2249       C  0.16377461  0.83245259  0.70342661    -0.13700
C2250       C  0.15042667  0.83840214  0.71868108     0.08500
C2251       C  0.13267467  0.82730396  0.72156280    -0.13700
C2252       C  0.12800111  0.81112607  0.70882673    -0.13700
C2253       C  0.14093770  0.80591717  0.69293473     0.08500
C2254       C  0.15905709  0.81648119  0.69068499    -0.13700
H2255       H  0.17761212  0.84061191  0.70082746     0.12500
H2256       H  0.12210751  0.83153729  0.73319603     0.12500
H2257       H  0.11386959  0.80331719  0.71082583     0.12500
H2258       H  0.16936080  0.81280418  0.67862050     0.12500
C2259       C  0.21153643  0.86315708  0.80062684    -0.13700
C2260       C  0.21208393  0.88137234  0.79006977     0.08500
C2261       C  0.22607279  0.89610810  0.79591146    -0.13700
C2262       C  0.23844258  0.89307055  0.81278304    -0.13700
C2263       C  0.23705163  0.87519099  0.82395619     0.08500
C2264       C  0.22388085  0.86009120  0.81728178    -0.13700
H2265       H  0.20103506  0.85148452  0.79640992     0.12500
H2266       H  0.22671457  0.91036600  0.78809080     0.12500
H2267       H  0.24849663  0.90493039  0.81750125     0.12500
H2268       H  0.22260310  0.84601839  0.82535504     0.12500
C2269       C  0.14738215  0.95124314  0.79843185    -0.13700
C2270       C  0.13481047  0.93546142  0.79233970     0.08500
C2271       C  0.11515150  0.93451217  0.80013479    -0.13700
C2272       C  0.10827105  0.94939448  0.81360824    -0.13700
C2273       C  0.12110956  0.96514294  0.81957975     0.08500
C2274       C  0.14069053  0.96574632  0.81181921    -0.13700
H2275       H  0.16262643  0.95244617  0.79286645     0.12500
H2276       H  0.10512812  0.92249579  0.79566756     0.12500
H2277       H  0.09311137  0.94851537  0.81944437     0.12500
H2278       H  0.15100172  0.97762367  0.81600401     0.12500
C2279       C  0.05881725  0.95603091  0.59462785    -0.13700
C2280       C  0.05866428  0.96527807  0.61361442     0.08500
C2281       C  0.04449426  0.95893574  0.62795517    -0.13700
C2282       C  0.03154639  0.94281355  0.62374142    -0.13700
C2283       C  0.03248859  0.93292004  0.60506187     0.08500
C2284       C  0.04584880  0.94012751  0.59038100    -0.13700
H2285       H  0.06949389  0.96062435  0.58323941     0.12500
H2286       H  0.04412220  0.96574038  0.64275940     0.12500
H2287       H  0.02138918  0.93761139  0.63532981     0.12500
H2288       H  0.04690275  0.93293187  0.57579245     0.12500
C2289       C  0.13067836  0.92930031  0.68850866    -0.13700
C2290       C  0.15041698  0.93040716  0.69583166     0.08500
C2291       C  0.16405053  0.94361743  0.68650702    -0.13700
C2292       C  0.15758521  0.95631092  0.67089199    -0.13700
C2293       C  0.13744032  0.95588327  0.66452195     0.08500
C2294       C  0.12430672  0.94181847  0.67309172    -0.13700
H2295       H  0.11984835  0.91912000  0.69512916     0.12500
H2296       H  0.17938401  0.94471148  0.69181439     0.12500
H2297       H  0.16797963  0.96712448  0.66459351     0.12500
H2298       H  0.10874468  0.94100824  0.66840271     0.12500
C2299       C  0.16179449  0.19113431  0.78212992    -0.13700
C2300       C  0.14674237  0.18316863  0.76964836     0.08500
C2301       C  0.12831165  0.19341017  0.76822473    -0.13700
C2302       C  0.12463924  0.21049658  0.78016292    -0.13700
C2303       C  0.13933921  0.21750788  0.79368302     0.08500
C2304       C  0.15814443  0.20801997  0.79396804    -0.13700
H2305       H  0.17625912  0.18382072  0.78340683     0.12500
H2306       H  0.11646106  0.18769147  0.75865126     0.12500
H2307       H  0.10995658  0.21746374  0.77969024     0.12500
H2308       H  0.16983160  0.21310725  0.80409191     0.12500
C2309       C  0.16103643  0.07547215  0.80520636    -0.13700
C2310       C  0.14705214  0.08863422  0.79640123     0.08500
C2311       C  0.12723323  0.08873691  0.80361648    -0.13700
C2312       C  0.12114607  0.07521413  0.81831991    -0.13700
C2313       C  0.13470434  0.06127469  0.82634129     0.08500
C2314       C  0.15489644  0.06187979  0.82018115    -0.13700
H2315       H  0.17642016  0.07510244  0.79993639     0.12500
H2316       H  0.11613207  0.09882616  0.79736384     0.12500
H2317       H  0.10554294  0.07521533  0.82295950     0.12500
H2318       H  0.16560047  0.05118984  0.82611104     0.12500
C2319       C  0.14357378  0.06291588  0.69933977    -0.13700
C2320       C  0.13261281  0.08077994  0.70154013     0.08500
C2321       C  0.11467176  0.08306753  0.69056976    -0.13700
C2322       C  0.10821668  0.06788172  0.67725974    -0.13700
C2323       C  0.11970628  0.05032901  0.67473116     0.08500
C2324       C  0.13724172  0.04798009  0.68617043    -0.13700
H2325       H  0.15733086  0.06048066  0.70767343     0.12500
H2326       H  0.10586961  0.09664285  0.69203540     0.12500
H2327       H  0.09464370  0.07009060  0.66857765     0.12500
H2328       H  0.14634094  0.03458350  0.68475841     0.12500
C2329       C  0.57186873  0.60925379  0.95977064    -0.13700
C2330       C  0.58053136  0.62464110  0.97135479     0.08500
C2331       C  0.57192472  0.64389738  0.97078284    -0.13700
C2332       C  0.55578134  0.64793169  0.95786296    -0.13700
C2333       C  0.54808182  0.63279784  0.94527625     0.08500
C2334       C  0.55585716  0.61328401  0.94687356    -0.13700
H2335       H  0.57802679  0.59420772  0.96000225     0.12500
H2336       H  0.57825117  0.65603246  0.97958161     0.12500
H2337       H  0.55007422  0.66312469  0.95692515     0.12500
H2338       H  0.55014707  0.60127794  0.93748497     0.12500
C2339       C  0.60930158  0.56884473  0.05706507    -0.13700
C2340       C  0.62590754  0.56652839  0.04425241     0.08500
C2341       C  0.63965063  0.55099401  0.04815419    -0.13700
C2342       C  0.63707907  0.53838526  0.06490691    -0.13700
C2343       C  0.62060098  0.54100460  0.07790395     0.08500
C2344       C  0.60661443  0.55618381  0.07355647    -0.13700
H2345       H  0.59847180  0.58066159  0.05448493     0.12500
H2346       H  0.65272756  0.54901659  0.03863978     0.12500
H2347       H  0.64809382  0.52684421  0.06785895     0.12500
H2348       H  0.59370178  0.55861255  0.08319511     0.12500
C2349       C  0.78008324  0.63469949  0.81483280    -0.13700
C2350       C  0.78527321  0.65008724  0.82839881     0.08500
C2351       C  0.80314446  0.66083226  0.82519018    -0.13700
C2352       C  0.81577330  0.65609069  0.80915401    -0.13700
C2353       C  0.81083940  0.64058987  0.79569681     0.08500
C2354       C  0.79272633  0.63005601  0.79852625    -0.13700
H2355       H  0.76639019  0.62616119  0.81693337     0.12500
H2356       H  0.80763912  0.67273255  0.83534883     0.12500
H2357       H  0.82959575  0.66450910  0.80742578     0.12500
H2358       H  0.78859346  0.61796118  0.78845089     0.12500
C2359       C  0.70355739  0.72645152  0.87921308    -0.13700
C2360       C  0.71142441  0.71328635  0.86467004     0.08500
C2361       C  0.70246568  0.71267843  0.84555369    -0.13700
C2362       C  0.68543024  0.72416103  0.84135686    -0.13700
C2363       C  0.67670443  0.73631341  0.85626388     0.08500
C2364       C  0.68624126  0.73776424  0.87510003    -0.13700
H2365       H  0.71005623  0.72709076  0.89414052     0.12500
H2366       H  0.70818588  0.70269740  0.83404945     0.12500
H2367       H  0.67854022  0.72277108  0.82665388     0.12500
H2368       H  0.67993634  0.74708364  0.88684822     0.12500
C2369       C  0.69285572  0.65336686  0.93051343    -0.13700
C2370       C  0.70354046  0.63940341  0.91891270     0.08500
C2371       C  0.69956941  0.61882168  0.92145721    -0.13700
C2372       C  0.68577074  0.61239607  0.93616784    -0.13700
C2373       C  0.67565567  0.62651951  0.94824430     0.08500
C2374       C  0.67907884  0.64704734  0.94486840    -0.13700
H2375       H  0.69545268  0.66933798  0.92878456     0.12500
H2376       H  0.70768332  0.60776919  0.91271357     0.12500
H2377       H  0.68338523  0.59647485  0.93841846     0.12500
H2378       H  0.67152229  0.65837363  0.95376641     0.12500
C2379       C  0.90167281  0.57117217  0.93516919    -0.13700
C2380       C  0.88776527  0.56594025  0.95015789     0.08500
C2381       C  0.87723120  0.54771268  0.94835087    -0.13700
C2382       C  0.88018832  0.53527336  0.93153061    -0.13700
C2383       C  0.89381632  0.54081795  0.91635295     0.08500
C2384       C  0.90468673  0.55877848  0.91853366    -0.13700
H2385       H  0.91003872  0.58511190  0.93609057     0.12500
H2386       H  0.86633761  0.54336647  0.95961426     0.12500
H2387       H  0.87169064  0.52144589  0.93030494     0.12500
H2388       H  0.91537083  0.56346046  0.90719538     0.12500
C2389       C  0.81426425  0.66407153  0.93197090    -0.13700
C2390       C  0.79902089  0.65083343  0.92560304     0.08500
C2391       C  0.79889637  0.63119327  0.93322480    -0.13700
C2392       C  0.81349324  0.62484989  0.94678316    -0.13700
C2393       C  0.82890067  0.63783850  0.95309087     0.08500
C2394       C  0.82920155  0.65757027  0.94551980    -0.13700
H2395       H  0.81477346  0.67928959  0.92630151     0.12500
H2396       H  0.78738240  0.62059532  0.92874467     0.12500
H2397       H  0.81275235  0.60954497  0.95221206     0.12500
H2398       H  0.84087368  0.66793007  0.95011034     0.12500
C2399       C  0.73330333  0.63472206  0.18086750    -0.13700
C2400       C  0.72874603  0.65044358  0.16750288     0.08500
C2401       C  0.71222473  0.66283380  0.17169329    -0.13700
C2402       C  0.69998410  0.65913818  0.18825973    -0.13700
C2403       C  0.70404664  0.64310898  0.20129531     0.08500
C2404       C  0.72109930  0.63117643  0.19776834    -0.13700
H2405       H  0.74598638  0.62498383  0.17803726     0.12500
H2406       H  0.70830498  0.67511050  0.16176631     0.12500
H2407       H  0.68702190  0.66863660  0.19064070     0.12500
H2408       H  0.72449139  0.61863585  0.20756115     0.12500
C2409       C  0.70494126  0.62944511  0.06717285    -0.13700
C2410       C  0.70928628  0.64976890  0.07069622     0.08500
C2411       C  0.69773753  0.66450436  0.06088415    -0.13700
C2412       C  0.68247836  0.65883424  0.04735566    -0.13700
C2413       C  0.67889439  0.63841524  0.04339174     0.08500
C2414       C  0.69006786  0.62387523  0.05366376    -0.13700
H2415       H  0.71333952  0.61767763  0.07458762     0.12500
H2416       H  0.70071610  0.68028578  0.06340636     0.12500
H2417       H  0.67401315  0.67029393  0.03954639     0.12500
H2418       H  0.68742845  0.60802229  0.05108874     0.12500
C2419       C  0.82275818  0.64477248  0.07108869    -0.13700
C2420       C  0.80728175  0.63184150  0.07705927     0.08500
C2421       C  0.80677312  0.61216179  0.06941827    -0.13700
C2422       C  0.82084933  0.60610667  0.05480910    -0.13700
C2423       C  0.83559000  0.61965110  0.04794864     0.08500
C2424       C  0.83678352  0.63874239  0.05684674    -0.13700
H2425       H  0.82355109  0.65996565  0.07691230     0.12500
H2426       H  0.79485061  0.60199160  0.07376828     0.12500
H2427       H  0.81960085  0.59128402  0.04820610     0.12500
H2428       H  0.84806029  0.64946737  0.05213724     0.12500
C2429       C  0.20600059  0.20827594  0.34524920    -0.13700
C2430       C  0.21575755  0.20852631  0.36394739     0.08500
C2431       C  0.20942158  0.22233386  0.37863996    -0.13700
C2432       C  0.19274493  0.23474807  0.37509122    -0.13700
C2433       C  0.18233651  0.23368218  0.35670519     0.08500
C2434       C  0.18957992  0.22075133  0.34163713    -0.13700
H2435       H  0.21060585  0.19784083  0.33362865     0.12500
H2436       H  0.21659313  0.22269440  0.39325751     0.12500
H2437       H  0.18754180  0.24457439  0.38697061     0.12500
H2438       H  0.18203854  0.21963892  0.32724389     0.12500
C2439       C  0.07770708  0.10597048  0.46025872    -0.13700
C2440       C  0.08600370  0.12057963  0.47306525     0.08500
C2441       C  0.07627230  0.13923117  0.47484372    -0.13700
C2442       C  0.05934614  0.14358566  0.46303794    -0.13700
C2443       C  0.05193696  0.12936502  0.44925473     0.08500
C2444       C  0.06090731  0.11030682  0.44851188    -0.13700
H2445       H  0.08469856  0.09138063  0.45866389     0.12500
H2446       H  0.08226081  0.15074809  0.48465911     0.12500
H2447       H  0.05278662  0.15843302  0.46387229     0.12500
H2448       H  0.05551834  0.09899033  0.43811615     0.12500
C2449       C  0.13926383  0.03205798  0.56226215    -0.13700
C2450       C  0.12196510  0.03483549  0.57411070     0.08500
C2451       C  0.10810031  0.04967920  0.56852063    -0.13700
C2452       C  0.11184261  0.06218126  0.55220156    -0.13700
C2453       C  0.12947923  0.06011151  0.54085369     0.08500
C2454       C  0.14297061  0.04460905  0.54567636    -0.13700
H2455       H  0.15016398  0.02067833  0.56617685     0.12500
H2456       H  0.09451131  0.05210106  0.57715993     0.12500
H2457       H  0.10111529  0.07389099  0.54879348     0.12500
H2458       H  0.15676122  0.04278227  0.53721257     0.12500
C2459       C  0.17990327  0.13924671  0.43868624    -0.13700
C2460       C  0.18030867  0.11950703  0.44603871     0.08500
C2461       C  0.19331414  0.10553123  0.43693639    -0.13700
C2462       C  0.20651182  0.11163921  0.42156016    -0.13700
C2463       C  0.20685377  0.13177864  0.41525781     0.08500
C2464       C  0.19301371  0.14529590  0.42357894    -0.13700
H2465       H  0.16988663  0.15033466  0.44512165     0.12500
H2466       H  0.19387914  0.09019553  0.44226217     0.12500
H2467       H  0.21712306  0.10095664  0.41541131     0.12500
H2468       H  0.19279043  0.16085514  0.41887001     0.12500
C2469       C  0.21881489  0.16201511  0.67609904    -0.13700
C2470       C  0.23354615  0.14814660  0.67017674     0.08500
C2471       C  0.23624754  0.13066824  0.68174553    -0.13700
C2472       C  0.22365834  0.12673885  0.69828319    -0.13700
C2473       C  0.20814496  0.14015945  0.70330001     0.08500
C2474       C  0.20627008  0.15805116  0.69237384    -0.13700
H2475       H  0.21644523  0.17572379  0.66768743     0.12500
H2476       H  0.24753788  0.11975046  0.67758320     0.12500
H2477       H  0.22535753  0.11277336  0.70643645     0.12500
H2478       H  0.19457275  0.16874405  0.69598527     0.12500
C2479       C  0.21164464  0.12594405  0.56821571    -0.13700
C2480       C  0.21492886  0.14641071  0.57208821     0.08500
C2481       C  0.20275284  0.16065744  0.56233337    -0.13700
C2482       C  0.18783095  0.15441564  0.54866767    -0.13700
C2483       C  0.18512112  0.13388790  0.54446723     0.08500
C2484       C  0.19704457  0.11980186  0.55458997    -0.13700
H2485       H  0.22060167  0.11452723  0.57552519     0.12500
H2486       H  0.20491438  0.17653606  0.56508480     0.12500
H2487       H  0.17883899  0.16557563  0.54102554     0.12500
H2488       H  0.19520081  0.10386770  0.55185560     0.12500
C2489       C  0.32470932  0.10659527  0.55606483    -0.13700
C2490       C  0.33914086  0.12005061  0.54850070     0.08500
C2491       C  0.34056686  0.13932428  0.55696701    -0.13700
C2492       C  0.32700201  0.14555619  0.57160801    -0.13700
C2493       C  0.31183270  0.13261253  0.57835477     0.08500
C2494       C  0.31112550  0.11284438  0.57099354    -0.13700
H2495       H  0.32326895  0.09167286  0.54974277     0.12500
H2496       H  0.35166358  0.14996108  0.55164440     0.12500
H2497       H  0.32792627  0.16083125  0.57717740     0.12500
H2498       H  0.29940768  0.10268640  0.57589090     0.12500
C2499       C  0.31662327  0.11966140  0.44403258    -0.13700
C2500       C  0.33098758  0.13340844  0.45111681     0.08500
C2501       C  0.33064944  0.15319047  0.44376575    -0.13700
C2502       C  0.31596676  0.15908885  0.42976398    -0.13700
C2503       C  0.30163456  0.14520144  0.42276526     0.08500
C2504       C  0.30224076  0.12543730  0.43002535    -0.13700
H2505       H  0.31649890  0.10426847  0.44927026     0.12500
H2506       H  0.34156773  0.16407702  0.44895119     0.12500
H2507       H  0.31588473  0.17440671  0.42434539     0.12500
H2508       H  0.29143989  0.11435286  0.42498580     0.12500
C2509       C  0.38052726  0.03395660  0.43106594    -0.13700
C2510       C  0.39592323  0.03869189  0.41734829     0.08500
C2511       C  0.40819618  0.05540623  0.42123094    -0.13700
C2512       C  0.40475955  0.06756621  0.43790520    -0.13700
C2513       C  0.38904493  0.06331615  0.45130602     0.08500
C2514       C  0.37716105  0.04615769  0.44800876    -0.13700
H2515       H  0.37089816  0.02109701  0.42849783     0.12500
H2516       H  0.42023663  0.05945921  0.41106040     0.12500
H2517       H  0.41421120  0.08064563  0.44004399     0.12500
H2518       H  0.36485599  0.04262424  0.45805724     0.12500
C2519       C  0.29635554  0.89056835  0.19480770    -0.13700
C2520       C  0.31370418  0.87897826  0.19802302     0.08500
C2521       C  0.31795254  0.86313455  0.18475169    -0.13700
C2522       C  0.30552863  0.85924255  0.16835320    -0.13700
C2523       C  0.28859280  0.87120533  0.16460914     0.08500
C2524       C  0.28393746  0.88678518  0.17813097    -0.13700
H2525       H  0.29278442  0.90295065  0.20476079     0.12500
H2526       H  0.33115874  0.85390278  0.18682787     0.12500
H2527       H  0.30952150  0.84707384  0.15829046     0.12500
H2528       H  0.27090801  0.89616156  0.17567125     0.12500
C2529       C  0.38826243  0.92930272  0.30472630    -0.13700
C2530       C  0.36910884  0.93051482  0.29594176     0.08500
C2531       C  0.35541972  0.94478021  0.30342724    -0.13700
C2532       C  0.36130578  0.95835862  0.31856518    -0.13700
C2533       C  0.38097622  0.95788704  0.32623758     0.08500
C2534       C  0.39413941  0.94286827  0.31956575    -0.13700
H2535       H  0.39910430  0.91835674  0.29952625     0.12500
H2536       H  0.34055840  0.94605379  0.29694772     0.12500
H2537       H  0.35093245  0.96990473  0.32339474     0.12500
H2538       H  0.40933554  0.94206267  0.32534661     0.12500
C2539       C  0.38678700  0.98641053  0.06462746    -0.13700
C2540       C  0.40161944  0.98169606  0.07890099     0.08500
C2541       C  0.41235370  0.96367678  0.07680321    -0.13700
C2542       C  0.40807463  0.95043270  0.06113454    -0.13700
C2543       C  0.39312349  0.95492467  0.04695886     0.08500
C2544       C  0.38266037  0.97318007  0.04867622    -0.13700
H2545       H  0.37826943  0.00021158  0.06589743     0.12500
H2546       H  0.42382443  0.95955333  0.08755251     0.12500
H2547       H  0.41643543  0.93650485  0.06022505     0.12500
H2548       H  0.37100047  0.97696647  0.03802177     0.12500
C2549       C  0.47863777  0.06143180  0.12967701    -0.13700
C2550       C  0.46437426  0.05501134  0.11545281     0.08500
C2551       C  0.46381701  0.06447864  0.09660948    -0.13700
C2552       C  0.47622036  0.08086060  0.09254360    -0.13700
C2553       C  0.48941876  0.08831847  0.10725391     0.08500
C2554       C  0.49105163  0.07800996  0.12562827    -0.13700
H2555       H  0.47938106  0.05441134  0.14434814     0.12500
H2556       H  0.45312132  0.05979722  0.08527863     0.12500
H2557       H  0.47473960  0.08829224  0.07812905     0.12500
H2558       H  0.50117345  0.08333050  0.13719307     0.12500
C2559       C  0.38094060  0.97054014  0.18379967    -0.13700
C2560       C  0.40034099  0.96997544  0.17558464     0.08500
C2561       C  0.41293259  0.95369069  0.18030763    -0.13700
C2562       C  0.40599575  0.93816165  0.19289782    -0.13700
C2563       C  0.38646990  0.93887290  0.20100412     0.08500
C2564       C  0.37413461  0.95528637  0.19629672    -0.13700
H2565       H  0.37084900  0.98284753  0.18050782     0.12500
H2566       H  0.42790733  0.95280410  0.17401740     0.12500
H2567       H  0.41582909  0.92568221  0.19627724     0.12500
H2568       H  0.35902870  0.95639597  0.20224411     0.12500
C2569       C  0.35811401  0.19420139  0.20875360    -0.13700
C2570       C  0.37271763  0.18629359  0.22176579     0.08500
C2571       C  0.39132596  0.19617177  0.22341208    -0.13700
C2572       C  0.39558861  0.21294299  0.21136763    -0.13700
C2573       C  0.38136947  0.21994134  0.19741134     0.08500
C2574       C  0.36241461  0.21074124  0.19667068    -0.13700
H2575       H  0.34356674  0.18705759  0.20721139     0.12500
H2576       H  0.40283926  0.19045695  0.23335075     0.12500
H2577       H  0.41037793  0.21969695  0.21215330     0.12500
H2578       H  0.35113529  0.21582849  0.18612519     0.12500
C2579       C  0.31630851  0.15852801  0.30376361    -0.13700
C2580       C  0.31263421  0.14294521  0.29004354     0.08500
C2581       C  0.29545862  0.13089182  0.29262610    -0.13700
C2582       C  0.28276289  0.13385699  0.30927346    -0.13700
C2583       C  0.28700530  0.14901528  0.32340503     0.08500
C2584       C  0.30364825  0.16158088  0.32014148    -0.13700
H2585       H  0.32937283  0.16813500  0.30214622     0.12500
H2586       H  0.29234416  0.11871499  0.28231239     0.12500
H2587       H  0.26995775  0.12400576  0.31135463     0.12500
H2588       H  0.30730253  0.17347825  0.33060871     0.12500
C2589       C  0.35825491  0.07855183  0.18621258    -0.13700
C2590       C  0.37144098  0.09315645  0.19397381     0.08500
C2591       C  0.39062171  0.09513735  0.18541499    -0.13700
C2592       C  0.39712010  0.08187322  0.17060882    -0.13700
C2593       C  0.38460816  0.06631364  0.16389824     0.08500
C2594       C  0.36481095  0.06518752  0.17118451    -0.13700
H2595       H  0.34336982  0.07674171  0.19252476     0.12500
H2596       H  0.40102649  0.10643024  0.19082003     0.12500
H2597       H  0.41238078  0.08317879  0.16508779     0.12500
H2598       H  0.35493971  0.05320632  0.16629984     0.12500
C2599       C  0.40378451  0.08365572  0.29794646    -0.13700
C2600       C  0.38380562  0.08481078  0.29117083     0.08500
C2601       C  0.36980078  0.07075023  0.29830789    -0.13700
C2602       C  0.37549752  0.05587482  0.31179187    -0.13700
C2603       C  0.39542625  0.05444716  0.31852503     0.08500
C2604       C  0.40959929  0.06847146  0.31145692    -0.13700
H2605       H  0.41489716  0.09429436  0.29264172     0.12500
H2606       H  0.35427171  0.07123246  0.29349761     0.12500
H2607       H  0.36416513  0.04535880  0.31688742     0.12500
H2608       H  0.42504871  0.06776477  0.31644079     0.12500
C2609       C  0.62807332  0.21524486  0.71465474    -0.13700
C2610       C  0.63850035  0.21744540  0.69638014     0.08500
C2611       C  0.65294914  0.20303525  0.69109127    -0.13700
C2612       C  0.65651759  0.18652472  0.70338171    -0.13700
C2613       C  0.64568404  0.18384139  0.72129738     0.08500
C2614       C  0.63159106  0.19850520  0.72701141    -0.13700
H2615       H  0.61678492  0.22609432  0.71906717     0.12500
H2616       H  0.66126730  0.20426359  0.67715571     0.12500
H2617       H  0.66753951  0.17557343  0.69854687     0.12500
H2618       H  0.62311435  0.19687427  0.74080282     0.12500
C2619       C  0.58497015  0.32001273  0.61917375    -0.13700
C2620       C  0.58617305  0.31407536  0.63939232     0.08500
C2621       C  0.57455774  0.32436773  0.65378862    -0.13700
C2622       C  0.56129988  0.33969360  0.64778853    -0.13700
C2623       C  0.55944328  0.34470100  0.62733044     0.08500
C2624       C  0.57176562  0.33501124  0.61324366    -0.13700
H2625       H  0.59381548  0.31261157  0.60768880     0.12500
H2626       H  0.57523824  0.32014563  0.66949417     0.12500
H2627       H  0.55190123  0.34693085  0.65892718     0.12500
H2628       H  0.57083450  0.33868836  0.59739664     0.12500
C2629       C  0.55182062  0.08975634  0.59796905    -0.13700
C2630       C  0.53488176  0.09379098  0.60989624     0.08500
C2631       C  0.53050864  0.08091919  0.62609011    -0.13700
C2632       C  0.54318418  0.06461369  0.63046558    -0.13700
C2633       C  0.56048563  0.06109763  0.61881335     0.08500
C2634       C  0.56447847  0.07374302  0.60243159    -0.13700
H2635       H  0.55564544  0.09930713  0.58537280     0.12500
H2636       H  0.51754683  0.08366147  0.63554972     0.12500
H2637       H  0.53980772  0.05516080  0.64326020     0.12500
H2638       H  0.57763437  0.07142762  0.59312545     0.12500
C2639       C  0.44056160  0.14202591  0.52040515    -0.13700
C2640       C  0.43218041  0.12263017  0.52039757     0.08500
C2641       C  0.44127859  0.10764551  0.53211344    -0.13700
C2642       C  0.45737095  0.11225836  0.54473310    -0.13700
C2643       C  0.46496139  0.13188582  0.54571666     0.08500
C2644       C  0.45692241  0.14659531  0.53292348    -0.13700
H2645       H  0.43387328  0.15386329  0.51153407     0.12500
H2646       H  0.43531259  0.09250326  0.53232822     0.12500
H2647       H  0.46336405  0.10063838  0.55437125     0.12500
H2648       H  0.46242252  0.16190111  0.53355285     0.12500
C2649       C  0.54933530  0.19877980  0.63119641    -0.13700
C2650       C  0.54962905  0.19139814  0.61141317     0.08500
C2651       C  0.56471614  0.19813138  0.59821951    -0.13700
C2652       C  0.57945001  0.21173922  0.60493239    -0.13700
C2653       C  0.57907792  0.21898478  0.62481726     0.08500
C2654       C  0.56376081  0.21241563  0.63776517    -0.13700
H2655       H  0.53784314  0.19403663  0.64171675     0.12500
H2656       H  0.56527099  0.19269027  0.58288429     0.12500
H2657       H  0.59104625  0.21662148  0.59460987     0.12500
H2658       H  0.56297974  0.21768206  0.65316193     0.12500
C2659       C  0.32429093  0.23802259  0.61689525    -0.13700
C2660       C  0.33495907  0.23720166  0.63513808     0.08500
C2661       C  0.32862691  0.22358327  0.64997687    -0.13700
C2662       C  0.31275195  0.21040898  0.64637495    -0.13700
C2663       C  0.30259939  0.21056686  0.62789638     0.08500
C2664       C  0.30815642  0.22484120  0.61333463    -0.13700
H2665       H  0.32883428  0.24833134  0.60516945     0.12500
H2666       H  0.33641028  0.22258040  0.66423869     0.12500
H2667       H  0.30880629  0.19963458  0.65790539     0.12500
H2668       H  0.30067926  0.22516628  0.59887753     0.12500
C2669       C  0.43311495  0.21431497  0.61289204    -0.13700
C2670       C  0.42832608  0.21679657  0.63328895     0.08500
C2671       C  0.43675771  0.20361375  0.64748382    -0.13700
C2672       C  0.45023158  0.18856432  0.64126828    -0.13700
C2673       C  0.45550696  0.18677312  0.62085737     0.08500
C2674       C  0.44653931  0.19961751  0.60679842    -0.13700
H2675       H  0.42689027  0.22413418  0.60152804     0.12500
H2676       H  0.43323370  0.20517114  0.66330721     0.12500
H2677       H  0.45699212  0.17884570  0.65240127     0.12500
H2678       H  0.45015966  0.19855984  0.59094573     0.12500
C2679       C  0.43621437  0.31839369  0.60367884    -0.13700
C2680       C  0.43465028  0.31165080  0.62365979     0.08500
C2681       C  0.44825170  0.31906740  0.63799990    -0.13700
C2682       C  0.46300366  0.33287376  0.63265039    -0.13700
C2683       C  0.46481288  0.33959163  0.61272680     0.08500
C2684       C  0.45131824  0.33217151  0.59820549    -0.13700
H2685       H  0.42596164  0.31285651  0.59230860     0.12500
H2686       H  0.44744409  0.31427715  0.65353711     0.12500
H2687       H  0.47313832  0.33820988  0.64423497     0.12500
H2688       H  0.45235675  0.33710601  0.58274101     0.12500
C2689       C  0.97117352  0.95805275  0.12588757    -0.13700
C2690       C  0.95320319  0.96062098  0.11509311     0.08500
C2691       C  0.94847682  0.94693774  0.09972362    -0.13700
C2692       C  0.96108050  0.93077155  0.09553494    -0.13700
C2693       C  0.97867035  0.92766014  0.10675288     0.08500
C2694       C  0.98377413  0.94161816  0.12182070    -0.13700
H2695       H  0.97514612  0.96835657  0.13786623     0.12500
H2696       H  0.93481051  0.94855578  0.09106054     0.12500
H2697       H  0.95673385  0.92039138  0.08375068     0.12500
H2698       H  0.99728320  0.93965300  0.13063987     0.12500
C2699       C  0.05966901  0.90846977  0.04310414    -0.13700
C2700       C  0.05069815  0.88938197  0.04310240     0.08500
C2701       C  0.05758361  0.87492311  0.02929607    -0.13700
C2702       C  0.07416365  0.87902156  0.01684351    -0.13700
C2703       C  0.08400579  0.89769725  0.01798049     0.08500
C2704       C  0.07602673  0.91258750  0.03064896    -0.13700
H2705       H  0.05461928  0.91996798  0.05340735     0.12500
H2706       H  0.05095340  0.86003858  0.02899230     0.12500
H2707       H  0.07988408  0.86730867  0.00716464     0.12500
H2708       H  0.08307651  0.92724897  0.03173062     0.12500
C2709       C  0.82583469  0.72192555  0.14928658    -0.13700
C2710       C  0.83411732  0.73436460  0.13438261     0.08500
C2711       C  0.82488703  0.73498944  0.11535983    -0.13700
C2712       C  0.80820923  0.72273422  0.11114465    -0.13700
C2713       C  0.80063889  0.70959711  0.12585635     0.08500
C2714       C  0.80938676  0.70966080  0.14505223    -0.13700
H2715       H  0.83249089  0.72113084  0.16411953     0.12500
H2716       H  0.83096977  0.74439547  0.10356237     0.12500
H2717       H  0.80186412  0.72282958  0.09615334     0.12500
H2718       H  0.80386188  0.69973549  0.15670413     0.12500
C2719       C  0.85927030  0.81978691  0.19003718    -0.13700
C2720       C  0.87615896  0.80754214  0.19306524     0.08500
C2721       C  0.88893119  0.81168269  0.20938143    -0.13700
C2722       C  0.88516909  0.82811183  0.22208544    -0.13700
C2723       C  0.86841987  0.84053230  0.21882577     0.08500
C2724       C  0.85539120  0.83599111  0.20281340    -0.13700
H2725       H  0.84914905  0.81697251  0.17761255     0.12500
H2726       H  0.90216912  0.80259176  0.21194795     0.12500
H2727       H  0.89548137  0.83124709  0.23425773     0.12500
H2728       H  0.84232581  0.84522718  0.19987466     0.12500
C2729       C  0.93450740  0.81127871  0.10114362    -0.13700
C2730       C  0.93714939  0.80016731  0.11892858     0.08500
C2731       C  0.95536230  0.80202942  0.12943896    -0.13700
C2732       C  0.97015370  0.81533667  0.12299300    -0.13700
C2733       C  0.96733096  0.82704506  0.10570338     0.08500
C2734       C  0.94956385  0.82457426  0.09451022    -0.13700
H2735       H  0.92066303  0.81007605  0.09268687     0.12500
H2736       H  0.95803526  0.79358149  0.14308056     0.12500
H2737       H  0.98375266  0.81672596  0.13183104     0.12500
H2738       H  0.94701124  0.83343795  0.08112470     0.12500
C2739       C  0.06979620  0.57658599  0.10900126    -0.13700
C2740       C  0.06385101  0.56076676  0.12162279     0.08500
C2741       C  0.04470160  0.56154163  0.13057792    -0.13700
C2742       C  0.03185486  0.57793318  0.12697585    -0.13700
C2743       C  0.03795837  0.59367110  0.11423963     0.08500
C2744       C  0.05705183  0.59271893  0.10534328    -0.13700
H2745       H  0.08444668  0.57661162  0.10196285     0.12500
H2746       H  0.03976856  0.54963208  0.14052226     0.12500
H2747       H  0.01721912  0.57826709  0.13402329     0.12500
H2748       H  0.06231261  0.60462361  0.09555721     0.12500
C2749       C  0.95583027  0.64557665  0.03624024    -0.13700
C2750       C  0.96398728  0.63033951  0.04835075     0.08500
C2751       C  0.95576202  0.61094775  0.04710633    -0.13700
C2752       C  0.93912845  0.60710153  0.03484519    -0.13700
C2753       C  0.93021781  0.62257315  0.02359058     0.08500
C2754       C  0.93907532  0.64174187  0.02400408    -0.13700
H2755       H  0.96172189  0.66071887  0.03702806     0.12500
H2756       H  0.96170309  0.59888916  0.05623442     0.12500
H2757       H  0.93278592  0.59211949  0.03476750     0.12500
H2758       H  0.93257332  0.65396337  0.01551524     0.12500
C2759       C  0.95444418  0.68673418  0.14716533    -0.13700
C2760       C  0.95218286  0.67714670  0.12844456     0.08500
C2761       C  0.93549355  0.68188719  0.11648192    -0.13700
C2762       C  0.92219071  0.69693321  0.12230229    -0.13700
C2763       C  0.92521491  0.70764121  0.14025100     0.08500
C2764       C  0.94100482  0.70191784  0.15305003    -0.13700
H2765       H  0.96730799  0.68348557  0.15656134     0.12500
H2766       H  0.93330490  0.67466916  0.10202947     0.12500
H2767       H  0.91002809  0.70084269  0.11223457     0.12500
H2768       H  0.94369878  0.70999767  0.16693350     0.12500
C2769       C  0.20864904  0.79500015  0.11668448    -0.13700
C2770       C  0.21472688  0.81029068  0.12994624     0.08500
C2771       C  0.20433884  0.81271162  0.14818008    -0.13700
C2772       C  0.18759476  0.80087334  0.15259911    -0.13700
C2773       C  0.18073916  0.78635891  0.13884700     0.08500
C2774       C  0.19174967  0.78316697  0.12107447    -0.13700
H2775       H  0.21629528  0.79289070  0.10246760     0.12500
H2776       H  0.20869792  0.82432367  0.15874558     0.12500
H2777       H  0.17956969  0.80362867  0.16649835     0.12500
H2778       H  0.18686192  0.77206252  0.11021745     0.12500
C2779       C  0.15391910  0.70179165  0.19267558    -0.13700
C2780       C  0.13830397  0.71527134  0.19699971     0.08500
C2781       C  0.12724742  0.71270874  0.21485249    -0.13700
C2782       C  0.13130730  0.69644372  0.22768972    -0.13700
C2783       C  0.14661958  0.68267691  0.22294190     0.08500
C2784       C  0.15805687  0.68579218  0.20547139    -0.13700
H2785       H  0.16279215  0.70337877  0.17910936     0.12500
H2786       H  0.11508622  0.72284716  0.21852772     0.12500
H2787       H  0.12229522  0.69445544  0.24110301     0.12500
H2788       H  0.16999691  0.67554779  0.20136480     0.12500
C2789       C  0.07694126  0.83415076  0.11118453    -0.13700
C2790       C  0.06182999  0.84175165  0.12374473     0.08500
C2791       C  0.06116362  0.83555635  0.14395037    -0.13700
C2792       C  0.07452752  0.82077967  0.15095165    -0.13700
C2793       C  0.08872116  0.81220078  0.13782449     0.08500
C2794       C  0.09023783  0.81965123  0.11813166    -0.13700
H2795       H  0.07793651  0.83879547  0.09560035     0.12500
H2796       H  0.04957269  0.84115190  0.15390040     0.12500
H2797       H  0.07307165  0.81535198  0.16622801     0.12500
H2798       H  0.10116264  0.81360308  0.10769384     0.12500
C2799       C  0.07968991  0.70920195  0.10354421    -0.13700
C2800       C  0.07728051  0.72034656  0.12140088     0.08500
C2801       C  0.05899996  0.71885641  0.13185544    -0.13700
C2802       C  0.04395401  0.70586601  0.12538014    -0.13700
C2803       C  0.04658055  0.69395648  0.10816548     0.08500
C2804       C  0.06438915  0.69610848  0.09692622    -0.13700
H2805       H  0.09355201  0.71016472  0.09506683     0.12500
H2806       H  0.05644229  0.72736588  0.14549971     0.12500
H2807       H  0.03036041  0.70475869  0.13427981     0.12500
H2808       H  0.06681220  0.68710462  0.08358364     0.12500
C2809       C  0.32548469  0.74003935  0.38272539    -0.13700
C2810       C  0.33740596  0.73612741  0.36565414     0.08500
C2811       C  0.33253205  0.71953413  0.35351945    -0.13700
C2812       C  0.31676930  0.70672999  0.35863201    -0.13700
C2813       C  0.30516390  0.71020796  0.37590330     0.08500
C2814       C  0.30937322  0.72723797  0.38773759    -0.13700
H2815       H  0.32882992  0.75273134  0.39235591     0.12500
H2816       H  0.34125002  0.71608550  0.34020977     0.12500
H2817       H  0.31379617  0.69387171  0.34908727     0.12500
H2818       H  0.30066037  0.73026770  0.40115360     0.12500
C2819       C  0.35947827  0.81297440  0.29415223    -0.13700
C2820       C  0.37883220  0.80488086  0.29602282     0.08500
C2821       C  0.39426742  0.81237811  0.28364653    -0.13700
C2822       C  0.39060583  0.82855885  0.27060809    -0.13700
C2823       C  0.37144414  0.83740004  0.26974081     0.08500
C2824       C  0.35582929  0.82897274  0.28117736    -0.13700
H2825       H  0.34726171  0.80750827  0.30340437     0.12500
H2826       H  0.40938160  0.80649914  0.28485782     0.12500
H2827       H  0.40293168  0.83472787  0.26196595     0.12500
H2828       H  0.34085748  0.83530658  0.28077877     0.12500
C2829       C  0.48460876  0.94589582  0.37078891    -0.13700
C2830       C  0.48263557  0.93557229  0.38912400     0.08500
C2831       C  0.46843301  0.94241076  0.40319293    -0.13700
C2832       C  0.45567083  0.95835857  0.39859206    -0.13700
C2833       C  0.45691783  0.96806291  0.37989926     0.08500
C2834       C  0.47191621  0.96209655  0.36625892    -0.13700
H2835       H  0.49541006  0.94097367  0.35965498     0.12500
H2836       H  0.46652365  0.93484945  0.41747666     0.12500
H2837       H  0.44430926  0.96264375  0.40944271     0.12500
H2838       H  0.47312802  0.96923585  0.35168953     0.12500
C2839       C  0.57011490  0.90665735  0.44037787    -0.13700
C2840       C  0.55604132  0.89176970  0.44536187     0.08500
C2841       C  0.55878617  0.88074319  0.46318844    -0.13700
C2842       C  0.57565471  0.88425260  0.47545365    -0.13700
C2843       C  0.58985496  0.89899034  0.47015927     0.08500
C2844       C  0.58669467  0.91027988  0.45262594    -0.13700
H2845       H  0.56844720  0.91544625  0.42678770     0.12500
H2846       H  0.54822414  0.86909556  0.46733723     0.12500
H2847       H  0.57765473  0.87539612  0.48894795     0.12500
H2848       H  0.59727368  0.92178079  0.44810857     0.12500
C2849       C  0.44709717  0.83053072  0.40361155    -0.13700
C2850       C  0.45445475  0.84543171  0.39057244     0.08500
C2851       C  0.44518574  0.84792962  0.37175884    -0.13700
C2852       C  0.43001382  0.83491082  0.36547173    -0.13700
C2853       C  0.42363131  0.81906698  0.37784055     0.08500
C2854       C  0.43175254  0.81744196  0.39729156    -0.13700
H2855       H  0.45394419  0.82827404  0.41819483     0.12500
H2856       H  0.45031691  0.85940405  0.36142535     0.12500
H2857       H  0.42396179  0.83664719  0.35045459     0.12500
H2858       H  0.42719654  0.80528990  0.40708377     0.12500
C2859       C  0.68611228  0.78507920  0.37777126    -0.13700
C2860       C  0.67222485  0.78999541  0.36260143     0.08500
C2861       C  0.67554729  0.80734594  0.35109682    -0.13700
C2862       C  0.69197587  0.81975998  0.35490212    -0.13700
C2863       C  0.70565998  0.81520685  0.37030056     0.08500
C2864       C  0.70275252  0.79757406  0.38155472    -0.13700
H2865       H  0.68397474  0.77177188  0.38683588     0.12500
H2866       H  0.66526580  0.81153617  0.33919496     0.12500
H2867       H  0.69381707  0.83313960  0.34586618     0.12500
H2868       H  0.71302724  0.79372673  0.39357147     0.12500
C2869       C  0.62003246  0.71127995  0.28348877    -0.13700
C2870       C  0.63496076  0.72002027  0.29564458     0.08500
C2871       C  0.65484960  0.71330122  0.29370058    -0.13700
C2872       C  0.65950339  0.69728072  0.28098536    -0.13700
C2873       C  0.64437127  0.68747626  0.26998459     0.08500
C2874       C  0.62469117  0.69508929  0.27077602    -0.13700
H2875       H  0.60453885  0.71608961  0.28476132     0.12500
H2876       H  0.66668883  0.71978532  0.30277860     0.12500
H2877       H  0.67485917  0.69190136  0.28059996     0.12500
H2878       H  0.61272819  0.68785210  0.26247174     0.12500
C2879       C  0.57064185  0.81766582  0.34843830    -0.13700
C2880       C  0.57204365  0.79971564  0.35945967     0.08500
C2881       C  0.55990834  0.79722614  0.37652140    -0.13700
C2882       C  0.54722229  0.81255457  0.38293790    -0.13700
C2883       C  0.54642108  0.83091664  0.37257785     0.08500
C2884       C  0.55796109  0.83321779  0.35501022    -0.13700
H2885       H  0.57992731  0.81997801  0.33528403     0.12500
H2886       H  0.56055405  0.78350966  0.38524840     0.12500
H2887       H  0.53840453  0.81015913  0.39640767     0.12500
H2888       H  0.55760045  0.84718402  0.34669592     0.12500
C2889       C  0.54462421  0.58202673  0.40219071    -0.13700
C2890       C  0.53103212  0.58839757  0.38733788     0.08500
C2891       C  0.53029114  0.57780943  0.36902767    -0.13700
C2892       C  0.54350498  0.56176185  0.36539984    -0.13700
C2893       C  0.55780113  0.55619341  0.37992346     0.08500
C2894       C  0.55788451  0.56622967  0.39850468    -0.13700
H2895       H  0.54563906  0.58982208  0.41647229     0.12500
H2896       H  0.52002393  0.58236385  0.35729147     0.12500
H2897       H  0.54320682  0.55438706  0.35086522     0.12500
H2898       H  0.56870774  0.56233705  0.40999439     0.12500
C2899       C  0.45251226  0.64562469  0.46023448    -0.13700
C2900       C  0.45759076  0.63228137  0.44462570     0.08500
C2901       C  0.44653625  0.61447958  0.44243959    -0.13700
C2902       C  0.43042296  0.61026394  0.45511951    -0.13700
C2903       C  0.42465721  0.62389639  0.47017364     0.08500
C2904       C  0.43603383  0.64152742  0.47284305    -0.13700
H2905       H  0.46075789  0.65951135  0.46217340     0.12500
H2906       H  0.45017010  0.60386438  0.43063138     0.12500
H2907       H  0.42208278  0.59651185  0.45268987     0.12500
H2908       H  0.43198163  0.65226816  0.48439121     0.12500
C2909       C  0.56465855  0.69309817  0.40299103    -0.13700
C2910       C  0.55756288  0.67815608  0.38979919     0.08500
C2911       C  0.56726479  0.67551511  0.37122131    -0.13700
C2912       C  0.58245792  0.68854813  0.36516636    -0.13700
C2913       C  0.58846371  0.70451991  0.37755159     0.08500
C2914       C  0.58008538  0.70620505  0.39690393    -0.13700
H2915       H  0.55749150  0.69542933  0.41742727     0.12500
H2916       H  0.56238556  0.66397955  0.36081607     0.12500
H2917       H  0.58875363  0.68679338  0.35023487     0.12500
H2918       H  0.58438041  0.71848799  0.40668416     0.12500
C2919       C  0.46635419  0.71086071  0.37624378    -0.13700
C2920       C  0.46447021  0.69136272  0.36833999     0.08500
C2921       C  0.44975093  0.68774374  0.35358320    -0.13700
C2922       C  0.43662184  0.70319511  0.34761310    -0.13700
C2923       C  0.43797050  0.72236120  0.35646652     0.08500
C2924       C  0.45325473  0.72607157  0.37047903    -0.13700
H2925       H  0.47762634  0.71429308  0.38746820     0.12500
H2926       H  0.44794409  0.67287912  0.34721455     0.12500
H2927       H  0.42490487  0.69993768  0.33680575     0.12500
H2928       H  0.45480256  0.74071810  0.37742534     0.12500
C2929       C  0.38798938  0.69598162  0.76784227    -0.13700
C2930       C  0.37031527  0.68489655  0.77130267     0.08500
C2931       C  0.35749515  0.69083952  0.78697856    -0.13700
C2932       C  0.36269931  0.70672566  0.79962969    -0.13700
C2933       C  0.38075504  0.71729418  0.79680434     0.08500
C2934       C  0.39308577  0.71218574  0.78041521    -0.13700
H2935       H  0.39805226  0.69183652  0.75576661     0.12500
H2936       H  0.34371319  0.68268958  0.79000486     0.12500
H2937       H  0.35278030  0.71041686  0.81198118     0.12500
H2938       H  0.40706814  0.72013715  0.77784785     0.12500
C2939       C  0.30543675  0.66033581  0.68912739    -0.13700
C2940       C  0.30687273  0.64099674  0.69737940     0.08500
C2941       C  0.29541503  0.62541518  0.68884908    -0.13700
C2942       C  0.28328307  0.62904388  0.67197404    -0.13700
C2943       C  0.28238422  0.64831275  0.66338804     0.08500
C2944       C  0.29334717  0.66395228  0.67238688    -0.13700
H2945       H  0.31413101  0.67265086  0.69527769     0.12500
H2946       H  0.29637633  0.61031275  0.69476239     0.12500
H2947       H  0.27505353  0.61667474  0.66532560     0.12500
H2948       H  0.29302719  0.67895481  0.66615944     0.12500
C2949       C  0.37101490  0.53850454  0.57096162    -0.13700
C2950       C  0.39052500  0.53780639  0.57904797     0.08500
C2951       C  0.40615001  0.54766239  0.56887083    -0.13700
C2952       C  0.40223790  0.55899232  0.55172371    -0.13700
C2953       C  0.38260079  0.56067589  0.54423766     0.08500
C2954       C  0.36709592  0.54983705  0.55362568    -0.13700
H2955       H  0.35871556  0.53097235  0.57843833     0.12500
H2956       H  0.42139725  0.54726703  0.57459463     0.12500
H2957       H  0.41449012  0.56710472  0.54478537     0.12500
H2958       H  0.35177310  0.55098990  0.54822296     0.12500
C2959       C  0.45260680  0.45963577  0.60471513    -0.13700
C2960       C  0.45330088  0.46945105  0.62340949     0.08500
C2961       C  0.46818738  0.46389219  0.63731040    -0.13700
C2962       C  0.48147388  0.44809988  0.63289495    -0.13700
C2963       C  0.48013512  0.43774665  0.61447482     0.08500
C2964       C  0.46586806  0.44406284  0.60027964    -0.13700
H2965       H  0.44142498  0.46368149  0.59360066     0.12500
H2966       H  0.46904200  0.47119369  0.65183538     0.12500
H2967       H  0.49234825  0.44358696  0.64411884     0.12500
H2968       H  0.46449900  0.43654412  0.58589958     0.12500
C2969       C  0.39514146  0.58264717  0.66554149    -0.13700
C2970       C  0.40563194  0.56587212  0.67278172     0.08500
C2971       C  0.41240643  0.56596288  0.69280286    -0.13700
C2972       C  0.40715674  0.58174579  0.70578564    -0.13700
C2973       C  0.39518899  0.59770300  0.69886805     0.08500
C2974       C  0.39009228  0.59842680  0.67838910    -0.13700
H2975       H  0.38984761  0.58308629  0.65015338     0.12500
H2976       H  0.42050646  0.55321186  0.69878877     0.12500
H2977       H  0.41124076  0.58073919  0.72151109     0.12500
H2978       H  0.38087132  0.61047700  0.67256042     0.12500
C2979       C  0.40828905  0.46369415  0.93443004    -0.13700
C2980       C  0.39016112  0.46314791  0.94521006     0.08500
C2981       C  0.37465848  0.47637873  0.93973745    -0.13700
C2982       C  0.37685093  0.48906427  0.92304368    -0.13700
C2983       C  0.39468380  0.48887441  0.91171581     0.08500
C2984       C  0.41056624  0.47649110  0.91798020    -0.13700
H2985       H  0.42050436  0.45371639  0.93829715     0.12500
H2986       H  0.36046313  0.47618028  0.94771389     0.12500
H2987       H  0.36439804  0.49849430  0.91861930     0.12500
H2988       H  0.42455119  0.47603914  0.90963895     0.12500
C2989       C  0.44332837  0.57683448  0.88363056    -0.13700
C2990       C  0.44671418  0.56445819  0.86686511     0.08500
C2991       C  0.46387334  0.56778840  0.85498403    -0.13700
C2992       C  0.47713887  0.58356398  0.85960272    -0.13700
C2993       C  0.47357084  0.59598352  0.87634741     0.08500
C2994       C  0.45662737  0.59227687  0.88837752    -0.13700
H2995       H  0.43029997  0.57462102  0.89314194     0.12500
H2996       H  0.46681551  0.55846746  0.84196129     0.12500
H2997       H  0.49012814  0.58605062  0.85012565     0.12500
H2998       H  0.45341366  0.60156855  0.90136636     0.12500
C2999       C  0.35919714  0.55045085  0.79635038    -0.13700
C3000       C  0.36290833  0.55621159  0.81633470     0.08500
C3001       C  0.35904950  0.57608392  0.82218969    -0.13700
C3002       C  0.35337059  0.59037009  0.80784885    -0.13700
C3003       C  0.35105888  0.58487765  0.78754454     0.08500
C3004       C  0.35310203  0.56460575  0.78213092    -0.13700
H3005       H  0.36209475  0.53520542  0.79147525     0.12500
H3006       H  0.36199148  0.58092375  0.83746674     0.12500
H3007       H  0.35191544  0.60590867  0.81242362     0.12500
H3008       H  0.35152142  0.55994666  0.76659719     0.12500
C3009       C  0.35315478  0.33639741  0.70506836    -0.13700
C3010       C  0.36748388  0.34296585  0.71912962     0.08500
C3011       C  0.38536692  0.33196845  0.72134548    -0.13700
C3012       C  0.38915320  0.31522633  0.70906694    -0.13700
C3013       C  0.37521175  0.30945338  0.69427826     0.08500
C3014       C  0.35703614  0.31994380  0.69271173    -0.13700
H3015       H  0.33915803  0.34442320  0.70306889     0.12500
H3016       H  0.39664048  0.33665450  0.73210105     0.12500
H3017       H  0.40336907  0.30745346  0.71042734     0.12500
H3018       H  0.34601391  0.31575773  0.68148357     0.12500
C3019       C  0.29273849  0.40135039  0.79693358    -0.13700
C3020       C  0.30405197  0.38603008  0.78780196     0.08500
C3021       C  0.30175609  0.36624162  0.79465425    -0.13700
C3022       C  0.28948980  0.36200434  0.81110401    -0.13700
C3023       C  0.27923581  0.37745305  0.82118582     0.08500
C3024       C  0.28042244  0.39709299  0.81354277    -0.13700
H3025       H  0.29429832  0.41675866  0.79200029     0.12500
H3026       H  0.31018893  0.35409258  0.78787070     0.12500
H3027       H  0.28877344  0.34668330  0.81648497     0.12500
H3028       H  0.27266851  0.40929076  0.82099549     0.12500
C3029       C  0.35792562  0.43774054  0.68164547    -0.13700
C3030       C  0.35400057  0.44343583  0.70162007     0.08500
C3031       C  0.35437705  0.46386211  0.70675678    -0.13700
C3032       C  0.36031760  0.47816705  0.69260109    -0.13700
C3033       C  0.36562986  0.47230685  0.67299465     0.08500
C3034       C  0.36347114  0.45210606  0.66736750    -0.13700
H3035       H  0.35770244  0.42205730  0.67732971     0.12500
H3036       H  0.35155140  0.46861520  0.72208142     0.12500
H3037       H  0.36186879  0.49366021  0.69732384     0.12500
H3038       H  0.36756671  0.44717907  0.65238924     0.12500
C3039       C  0.40556609  0.44678702  0.78703316    -0.13700
C3040       C  0.39237423  0.43152841  0.79337881     0.08500
C3041       C  0.38541830  0.43176375  0.81332899    -0.13700
C3042       C  0.38983668  0.44788062  0.82599248    -0.13700
C3043       C  0.40160659  0.46396469  0.81914105     0.08500
C3044       C  0.41024839  0.46286019  0.79989235    -0.13700
H3045       H  0.41109439  0.44705734  0.77172143     0.12500
H3046       H  0.37528694  0.42023248  0.81873067     0.12500
H3047       H  0.38318505  0.44824709  0.84085731     0.12500
H3048       H  0.41938101  0.47509462  0.79427188     0.12500
C3049       C  0.94243089  0.38027518  0.47492596    -0.13700
C3050       C  0.93208965  0.39864243  0.47372419     0.08500
C3051       C  0.93844360  0.41290086  0.45951840    -0.13700
C3052       C  0.95389800  0.40851464  0.44603743    -0.13700
C3053       C  0.96366152  0.38985651  0.44655421     0.08500
C3054       C  0.95820254  0.37597465  0.46152583    -0.13700
H3055       H  0.93788437  0.36899734  0.48572004     0.12500
H3056       H  0.93084455  0.42720155  0.45816180     0.12500
H3057       H  0.95779622  0.41956193  0.43475611     0.12500
H3058       H  0.96543456  0.36144106  0.46223347     0.12500
C3059       C  0.88017099  0.47418835  0.55022244    -0.13700
C3060       C  0.88852311  0.45481715  0.54937621     0.08500
C3061       C  0.90071891  0.44835378  0.56533090    -0.13700
C3062       C  0.90433098  0.46074131  0.58182336    -0.13700
C3063       C  0.89579894  0.47996070  0.58295600     0.08500
C3064       C  0.88375555  0.48667263  0.56692389    -0.13700
H3065       H  0.87065188  0.47954969  0.53816063     0.12500
H3066       H  0.90738186  0.43354576  0.56521312     0.12500
H3067       H  0.91370321  0.45508927  0.59387036     0.12500
H3068       H  0.87706222  0.50145731  0.56735270     0.12500
C3069       C  0.80878319  0.36828147  0.66860010    -0.13700
C3070       C  0.78981481  0.37729691  0.66682535     0.08500
C3071       C  0.78316696  0.39015969  0.68224133    -0.13700
C3072       C  0.79524639  0.39367810  0.69921515    -0.13700
C3073       C  0.81420769  0.38455665  0.70091158     0.08500
C3074       C  0.82083729  0.37191004  0.68534720    -0.13700
H3075       H  0.81442113  0.35838946  0.65692796     0.12500
H3076       H  0.76862876  0.39730081  0.68125938     0.12500
H3077       H  0.78984389  0.40367474  0.71090238     0.12500
H3078       H  0.83540663  0.36477699  0.68607506     0.12500
C3079       C  0.70732209  0.29930882  0.61619023    -0.13700
C3080       C  0.71383218  0.31364094  0.63033489     0.08500
C3081       C  0.70356378  0.31522745  0.64870082    -0.13700
C3082       C  0.68675770  0.30336657  0.65261957    -0.13700
C3083       C  0.67964158  0.28962801  0.63823193     0.08500
C3084       C  0.69030493  0.28742452  0.62009173    -0.13700
H3085       H  0.71482290  0.29791352  0.60181444     0.12500
H3086       H  0.70815234  0.32615188  0.65989301     0.12500
H3087       H  0.67896168  0.30544060  0.66675257     0.12500
H3088       H  0.68516483  0.27696103  0.60870698     0.12500
C3089       C  0.79547781  0.38057753  0.55105299    -0.13700
C3090       C  0.79980759  0.36729416  0.56676933     0.08500
C3091       C  0.81925997  0.35920216  0.56826657    -0.13700
C3092       C  0.83442982  0.36536627  0.55485275    -0.13700
C3093       C  0.83019104  0.37955367  0.53977084     0.08500
C3094       C  0.81040783  0.38654772  0.53770700    -0.13700
H3095       H  0.78058464  0.38691274  0.54945842     0.12500
H3096       H  0.82297096  0.34902564  0.58039348     0.12500
H3097       H  0.84955868  0.35976077  0.55681219     0.12500
H3098       H  0.80654591  0.39729623  0.52613643     0.12500
C3099       C  0.57597777  0.38869391  0.52579371    -0.13700
C3100       C  0.58799130  0.40589519  0.52834180     0.08500
C3101       C  0.58271607  0.41981924  0.54334504    -0.13700
C3102       C  0.56636786  0.41631145  0.55602584    -0.13700
C3103       C  0.55465084  0.39890448  0.55387466     0.08500
C3104       C  0.55934679  0.38531649  0.53837083    -0.13700
H3105       H  0.57968550  0.37769226  0.51442991     0.12500
H3106       H  0.59165817  0.43323179  0.54577074     0.12500
H3107       H  0.56316836  0.42701618  0.56783496     0.12500
H3108       H  0.55068882  0.37163412  0.53652933     0.12500
C3109       C  0.63933706  0.47941226  0.45070433    -0.13700
C3110       C  0.62891609  0.46116136  0.45298159     0.08500
C3111       C  0.61420266  0.45602583  0.43875222    -0.13700
C3112       C  0.61042803  0.46837519  0.42228542    -0.13700
C3113       C  0.62135407  0.48619512  0.41942015     0.08500
C3114       C  0.63565009  0.49180112  0.43398058    -0.13700
H3115       H  0.65076812  0.48375112  0.46143911     0.12500
H3116       H  0.60580474  0.44215342  0.44010163     0.12500
H3117       H  0.59921282  0.46364062  0.41148298     0.12500
H3118       H  0.64419611  0.50553467  0.43225977     0.12500
C3119       C  0.67717154  0.38556648  0.55995664    -0.13700
C3120       C  0.67892801  0.40488120  0.55170886     0.08500
C3121       C  0.69345326  0.41806954  0.55961081    -0.13700
C3122       C  0.70694499  0.41142785  0.57445271    -0.13700
C3123       C  0.70605920  0.39152871  0.58141834     0.08500
C3124       C  0.69057429  0.37897466  0.57454732    -0.13700
H3125       H  0.66597722  0.37509956  0.55444729     0.12500
H3126       H  0.69506480  0.43307075  0.55359269     0.12500
H3127       H  0.71877337  0.42139156  0.57951962     0.12500
H3128       H  0.68935304  0.36364213  0.57981438     0.12500
C3129       C  0.73744919  0.38788372  0.31715109    -0.13700
C3130       C  0.73215443  0.37267716  0.33082158     0.08500
C3131       C  0.71474432  0.36131809  0.32716300    -0.13700
C3132       C  0.70245175  0.36556451  0.31074273    -0.13700
C3133       C  0.70732667  0.38115578  0.29740197     0.08500
C3134       C  0.72515838  0.39204506  0.30051809    -0.13700
H3135       H  0.75084174  0.39680436  0.31953591     0.12500
H3136       H  0.71027556  0.34942963  0.33732522     0.12500
H3137       H  0.68886351  0.35683717  0.30872333     0.12500
H3138       H  0.72925258  0.40417609  0.29049567     0.12500
C3139       C  0.80840100  0.29492842  0.38299955    -0.13700
C3140       C  0.80235755  0.30969433  0.36917984     0.08500
C3141       C  0.81154410  0.31023903  0.35018038    -0.13700
C3142       C  0.82725213  0.29722605  0.34548482    -0.13700
C3143       C  0.83436338  0.28341571  0.35974211     0.08500
C3144       C  0.82436765  0.28192695  0.37834028    -0.13700
H3145       H  0.80159582  0.29419891  0.39776625     0.12500
H3146       H  0.80711043  0.32133259  0.33913990     0.12500
H3147       H  0.83446676  0.29868529  0.33096722     0.12500
H3148       H  0.82946544  0.27136807  0.38960447     0.12500
C3149       C  0.70229081  0.36217900  0.43522020    -0.13700
C3150       C  0.71979032  0.37359081  0.43198447     0.08500
C3151       C  0.72234757  0.39152926  0.44278149    -0.13700
C3152       C  0.70762938  0.39826751  0.45605218    -0.13700
C3153       C  0.68974746  0.38738677  0.45883348     0.08500
C3154       C  0.68730444  0.36909547  0.44848329    -0.13700
H3155       H  0.69992140  0.34832170  0.42704473     0.12500
H3156       H  0.73571430  0.40060904  0.44075910     0.12500
H3157       H  0.71013058  0.41234126  0.46382525     0.12500
H3158       H  0.67371561  0.36034847  0.45037369     0.12500
C3159       C  0.81279451  0.40997346  0.42567139    -0.13700
C3160       C  0.81423352  0.39046169  0.41766324     0.08500
C3161       C  0.83039809  0.37830092  0.42335359    -0.13700
C3162       C  0.84401828  0.38477114  0.43782172    -0.13700
C3163       C  0.84166408  0.40346969  0.44732700     0.08500
C3164       C  0.82642315  0.41643362  0.44054102    -0.13700
H3165       H  0.80038630  0.41960574  0.42152340     0.12500
H3166       H  0.83197983  0.36328558  0.41726660     0.12500
H3167       H  0.85575124  0.37451581  0.44241332     0.12500
H3168       H  0.82430535  0.43096872  0.44753575     0.12500
loop_ 
_geom_bond_atom_site_label_1 
_geom_bond_atom_site_label_2 
_geom_bond_distance 
_geom_bond_site_symmetry_2 
_ccdc_geom_bond_type 
O1            C4   1.270       .  A
O1           Cd6   2.499       .  S
C2           O11   1.265       .  A
C2            O7   1.271       .  A
C2         C3160   1.477       .  S
O3            C9   1.271       .  A
O3           Cd6   2.529       .  S
C4           O12   1.266       .  A
C4         C3130   1.482       .  S
C5           O10   1.273       .  A
C5            O8   1.266       .  A
C5         C3140   1.482       .  S
Cd6          O13   2.414       .  S
Cd6          O12   2.432       .  S
Cd6          O11   2.405       .  S
Cd6           O7   2.517       .  S
Cd6          O10   2.510       .  S
Cd6           O8   2.416       .  S
C9           O13   1.263       .  A
C9         C3150   1.483       .  S
O14          C17   1.274       .  A
O14         Cd19   2.521       .  S
C15          O24   1.268       .  A
C15          O20   1.275       .  A
C15        C3100   1.485       .  S
O16          C22   1.275       .  A
O16         Cd19   2.504       .  S
C17          O25   1.266       .  A
C17        C3153   1.487       .  S
C18          O23   1.274       .  A
C18          O21   1.268       .  A
C18        C3110   1.484       .  S
Cd19         O26   2.390       .  S
Cd19         O25   2.407       .  S
Cd19         O24   2.419       .  S
Cd19         O20   2.496       .  S
Cd19         O23   2.504       .  S
Cd19         O21   2.416       .  S
C22          O26   1.267       .  A
C22        C3120   1.481       .  S
O27          C30   1.271       .  A
O27         Cd32   2.511       .  S
C28          O37   1.263       .  A
C28          O33   1.272       .  A
C28        C3123   1.478       .  S
O29          C35   1.269       .  A
O29         Cd32   2.517       .  S
C30          O38   1.265       .  A
C30        C3070   1.482       .  S
C31          O36   1.270       .  A
C31          O34   1.266       .  A
C31        C3080   1.481       .  S
Cd32         O39   2.409       .  S
Cd32         O38   2.425       .  S
Cd32         O37   2.394       .  S
Cd32         O33   2.523       .  S
Cd32         O36   2.499       .  S
Cd32         O34   2.424       .  S
C35          O39   1.264       .  A
C35        C3090   1.477       .  S
O40          C43   1.272       .  A
O40         Cd45   2.528       .  S
C41          O50   1.268       .  A
C41          O46   1.273       .  A
C41        C3050   1.485       .  S
O42          C48   1.274       .  A
O42         Cd45   2.527       .  S
C43          O51   1.264       .  A
C43        C3093   1.483       .  S
C44          O49   1.273       .  A
C44          O47   1.266       .  A
C44        C3060   1.483       .  S
Cd45         O52   2.390       .  S
Cd45         O51   2.399       .  S
Cd45         O50   2.421       .  S
Cd45         O46   2.498       .  S
Cd45         O49   2.509       .  S
Cd45         O47   2.405       .  S
C48          O52   1.265       .  A
C48        C3163   1.484       .  S
O53          C56   1.271       .  A
O53         Cd58   2.498       .  S
C54          O63   1.262       .  A
C54          O59   1.265       .  A
C54        C3040   1.482       .  S
O55          C61   1.267       .  A
O55         Cd58   2.486       .  S
C56          O64   1.266       .  A
C56        C3010   1.481       .  S
C57          O62   1.269       .  A
C57          O60   1.264       .  A
C57        C3020   1.479       .  S
Cd58         O65   2.449       .  S
Cd58         O64   2.420       .  S
Cd58         O63   2.449       .  S
Cd58         O59   2.508       .  S
Cd58         O62   2.501       .  S
Cd58         O60   2.423       .  S
C61          O65   1.263       .  A
C61        C3030   1.475       .  S
O66          C69   1.271       .  A
O66         Cd71   2.495       .  S
C67          O76   1.262       .  A
C67          O72   1.268       .  A
C67        C3000   1.475       .  S
O68          C74   1.270       .  A
O68         Cd71   2.508       .  S
C69          O77   1.266       .  A
C69        C2983   1.482       .  S
C70          O75   1.272       .  A
C70          O73   1.267       .  A
C70        C3043   1.478       .  S
Cd71         O78   2.416       .  S
Cd71         O77   2.425       .  S
Cd71         O76   2.431       .  S
Cd71         O72   2.503       .  S
Cd71         O75   2.494       .  S
Cd71         O73   2.417       .  S
C74          O78   1.263       .  A
C74        C2990   1.480       .  S
O79          C82   1.265       .  A
O79         Cd84   2.494       .  S
C80          O89   1.267       .  A
C80          O85   1.270       .  A
C80        C2950   1.480       .  S
O81          C87   1.270       .  A
O81         Cd84   2.506       .  S
C82          O90   1.260       .  A
C82        C3033   1.475       .  S
C83          O88   1.269       .  A
C83          O86   1.261       .  A
C83        C2960   1.482       .  S
Cd84         O91   2.429       .  S
Cd84         O90   2.444       .  S
Cd84         O89   2.423       .  S
Cd84         O85   2.487       .  S
Cd84         O88   2.526       .  S
Cd84         O86   2.426       .  S
C87          O91   1.265       .  A
C87        C2970   1.481       .  S
O92          C95   1.270       .  A
O92         Cd97   2.496       .  S
C93         O102   1.263       .  A
C93          O98   1.265       .  A
C93        C2973   1.481       .  S
O94         C100   1.263       .  A
O94         Cd97   2.468       .  S
C95         O103   1.267       .  A
C95        C2930   1.483       .  S
C96         O101   1.267       .  A
C96          O99   1.263       .  A
C96        C2940   1.482       .  S
Cd97        O104   2.482       .  S
Cd97        O103   2.437       .  S
Cd97        O102   2.448       .  S
Cd97         O98   2.496       .  S
Cd97        O101   2.507       .  S
Cd97         O99   2.436       .  S
C100        O104   1.266       .  A
C100       C3003   1.479       .  S
O105        C108   1.274       .  A
O105       Cd110   2.537       .  S
C106        O115   1.268       .  A
C106        O111   1.274       .  A
C106       C2890   1.487       .  S
O107        C113   1.273       .  A
O107       Cd110   2.510       .  S
C108        O116   1.264       .  A
C108       C2920   1.486       .  S
C109        O114   1.272       .  A
C109        O112   1.266       .  A
C109       C2900   1.480       .  S
Cd110       O117   2.401       .  S
Cd110       O116   2.398       .  S
Cd110       O115   2.425       .  S
Cd110       O111   2.510       .  S
Cd110       O114   2.509       .  S
Cd110       O112   2.415       .  S
C113        O117   1.266       .  A
C113       C2910   1.482       .  S
O118        C121   1.271       .  A
O118       Cd123   2.512       .  S
C119        O128   1.263       .  A
C119        O124   1.271       .  A
C119       C2913   1.479       .  S
O120        C126   1.270       .  A
O120       Cd123   2.512       .  S
C121        O129   1.265       .  A
C121       C2860   1.485       .  S
C122        O127   1.270       .  A
C122        O125   1.266       .  A
C122       C2870   1.482       .  S
Cd123       O130   2.423       .  S
Cd123       O129   2.426       .  S
Cd123       O128   2.409       .  S
Cd123       O124   2.523       .  S
Cd123       O127   2.499       .  S
Cd123       O125   2.436       .  S
C126        O130   1.264       .  A
C126       C2880   1.479       .  S
O131        C134   1.274       .  A
O131       Cd136   2.514       .  S
C132        O141   1.269       .  A
C132        O137   1.274       .  A
C132       C2830   1.484       .  S
O133        C139   1.274       .  A
O133       Cd136   2.505       .  S
C134        O142   1.265       .  A
C134       C2883   1.483       .  S
C135        O140   1.274       .  A
C135        O138   1.267       .  A
C135       C2840   1.483       .  S
Cd136       O143   2.407       .  S
Cd136       O142   2.395       .  S
Cd136       O141   2.421       .  S
Cd136       O137   2.486       .  S
Cd136       O140   2.506       .  S
Cd136       O138   2.412       .  S
C139        O143   1.266       .  A
C139       C2850   1.484       .  S
O144        C147   1.271       .  A
O144       Cd149   2.538       .  S
C145        O154   1.263       .  A
C145        O150   1.271       .  A
C145       C2853   1.482       .  S
O146        C152   1.267       .  A
O146       Cd149   2.525       .  S
C147        O155   1.264       .  A
C147       C2810   1.489       .  S
C148        O153   1.269       .  A
C148        O151   1.267       .  A
C148       C2820   1.482       .  S
Cd149       O156   2.435       .  S
Cd149       O155   2.433       .  S
Cd149       O154   2.425       .  S
Cd149       O150   2.527       .  S
Cd149       O153   2.501       .  S
Cd149       O151   2.435       .  S
C152        O156   1.263       .  A
C152       C2923   1.482       .  S
O157        C160   1.274       .  A
O157       Cd162   2.488       .  S
C158        O167   1.266       .  A
C158        O163   1.274       .  A
C158       C2800   1.487       .  S
O159        C165   1.273       .  A
O159       Cd162   2.510       .  S
C160        O168   1.268       .  A
C160       C2773   1.484       .  S
C161        O166   1.275       .  A
C161        O164   1.266       .  A
C161       C2793   1.482       .  S
Cd162       O169   2.409       .  S
Cd162       O168   2.430       .  S
Cd162       O167   2.401       .  S
Cd162       O163   2.530       .  S
Cd162       O166   2.509       .  S
Cd162       O164   2.387       .  S
C165        O169   1.267       .  A
C165       C2780   1.483       .  S
O170        C173   1.271       .  A
O170       Cd175   2.523       .  S
C171        O180   1.262       .  A
C171        O176   1.271       .  A
C171       C2760   1.479       .  S
O172        C178   1.270       .  A
O172       Cd175   2.538       .  S
C173        O181   1.265       .  A
C173       C2743   1.484       .  S
C174        O179   1.271       .  A
C174        O177   1.267       .  A
C174       C2750   1.484       .  S
Cd175       O182   2.415       .  S
Cd175       O181   2.419       .  S
Cd175       O180   2.409   1_455  S
Cd175       O176   2.522   1_455  S
Cd175       O179   2.491   1_455  S
Cd175       O177   2.446   1_455  S
C178        O182   1.263       .  A
C178       C2803   1.485       .  S
O183        C186   1.273       .  A
O183       Cd188   2.515       .  S
C184        O193   1.268       .  A
C184        O189   1.273       .  A
C184       C2710   1.484       .  S
O185        C191   1.273       .  A
O185       Cd188   2.508       .  S
C186        O194   1.265       .  A
C186       C2730   1.484       .  S
C187        O192   1.272       .  A
C187        O190   1.267       .  A
C187       C2720   1.482       .  S
Cd188       O195   2.402       .  S
Cd188       O194   2.400       .  S
Cd188       O193   2.419       .  S
Cd188       O189   2.492       .  S
Cd188       O192   2.497       .  S
Cd188       O190   2.434       .  S
C191        O195   1.266       .  A
C191       C2763   1.480       .  S
O196        C199   1.271   1_455  A
O196       Cd201   2.506       .  S
C197        O206   1.264       .  A
C197        O202   1.272       .  A
C197       C2790   1.478       .  S
O198        C204   1.271       .  A
O198       Cd201   2.529   1_655  S
C199        O207   1.266       .  A
C199       C2693   1.484       .  S
C200        O205   1.272       .  A
C200        O203   1.266       .  A
C200       C2700   1.484       .  S
Cd201       O208   2.422   1_455  S
Cd201       O207   2.427   1_455  S
Cd201       O206   2.401       .  S
Cd201       O202   2.520       .  S
Cd201       O205   2.509       .  S
Cd201       O203   2.430       .  S
C204        O208   1.264       .  A
C204       C2733   1.483       .  S
O209        C212   1.275       .  A
O209       Cd214   2.519       .  S
C210        O219   1.268       .  A
C210        O215   1.275       .  A
C210       C2660   1.485       .  S
O211        C217   1.273       .  A
O211       Cd214   2.501       .  S
C212        O220   1.266       .  A
C212       C2680   1.483       .  S
C213        O218   1.273       .  A
C213        O216   1.268       .  A
C213       C3013   1.476       .  S
Cd214       O221   2.375       .  S
Cd214       O220   2.393       .  S
Cd214       O219   2.405       .  S
Cd214       O215   2.506       .  S
Cd214       O218   2.484       .  S
Cd214       O216   2.404       .  S
C217        O221   1.266       .  A
C217       C2670   1.478       .  S
O222        C225   1.273       .  A
O222       Cd227   2.500       .  S
C223        O232   1.264       .  A
C223        O228   1.273       .  A
C223       C2673   1.477       .  S
O224        C230   1.273       .  A
O224       Cd227   2.513       .  S
C225        O233   1.268       .  A
C225       C2630   1.484       .  S
C226        O231   1.272       .  A
C226        O229   1.267       .  A
C226       C2643   1.477       .  S
Cd227       O234   2.401       .  S
Cd227       O233   2.410       .  S
Cd227       O232   2.371       .  S
Cd227       O228   2.517       .  S
Cd227       O231   2.497       .  S
Cd227       O229   2.420       .  S
C230        O234   1.265       .  A
C230       C2650   1.482       .  S
O235        C238   1.273       .  A
O235       Cd240   2.496       .  S
C236        O245   1.266       .  A
C236        O241   1.274       .  A
C236       C2653   1.482       .  S
O237        C243   1.274       .  A
O237       Cd240   2.500       .  S
C238        O246   1.268       .  A
C238       C3083   1.484       .  S
C239        O244   1.274       .  A
C239        O242   1.266       .  A
C239       C2620   1.483       .  S
Cd240       O247   2.404       .  S
Cd240       O246   2.415       .  S
Cd240       O245   2.401       .  S
Cd240       O241   2.509       .  S
Cd240       O244   2.516       .  S
Cd240       O242   2.390       .  S
C243        O247   1.267       .  A
C243       C2610   1.482       .  S
O248        C251   1.272       .  A
O248       Cd253   2.499       .  S
C249        O258   1.264       .  A
C249        O254   1.273       .  A
C249       C2623   1.479       .  S
O250        C256   1.273       .  A
O250       Cd253   2.522       .  S
C251        O259   1.267       .  A
C251       C2963   1.485       .  S
C252        O257   1.273       .  A
C252        O255   1.268       .  A
C252       C3103   1.482       .  S
Cd253       O260   2.407       .  S
Cd253       O259   2.429       .  S
Cd253       O258   2.386       .  S
Cd253       O254   2.521       .  S
Cd253       O257   2.494       .  S
Cd253       O255   2.428       .  S
C256        O260   1.265       .  A
C256       C2683   1.484       .  S
O261        C264   1.274       .  A
O261       Cd266   2.516       .  S
C262        O271   1.267       .  A
C262        O267   1.273       .  A
C262       C2570   1.482       .  S
O263        C269   1.272       .  A
O263       Cd266   2.510       .  S
C264        O272   1.265       .  A
C264       C2600   1.482       .  S
C265        O270   1.273       .  A
C265        O268   1.268       .  A
C265       C2580   1.479       .  S
Cd266       O273   2.404       .  S
Cd266       O272   2.390       .  S
Cd266       O271   2.414       .  S
Cd266       O267   2.494       .  S
Cd266       O270   2.491       .  S
Cd266       O268   2.402       .  S
C269        O273   1.266       .  A
C269       C2590   1.481       .  S
O274        C277   1.272   1_545  A
O274       Cd279   2.492       .  S
C275        O284   1.264       .  A
C275        O280   1.271       .  A
C275       C2593   1.476       .  S
O276        C282   1.272       .  A
O276       Cd279   2.529   1_565  S
C277        O285   1.266       .  A
C277       C2540   1.481       .  S
C278        O283   1.272       .  A
C278        O281   1.267       .  A
C278       C2550   1.482       .  S
Cd279       O286   2.397   1_545  S
Cd279       O285   2.413   1_545  S
Cd279       O284   2.400       .  S
Cd279       O280   2.518       .  S
Cd279       O283   2.496       .  S
Cd279       O281   2.421       .  S
C282        O286   1.263       .  A
C282       C2560   1.482       .  S
O287        C290   1.273       .  A
O287       Cd292   2.522       .  S
C288        O297   1.268       .  A
C288        O293   1.273       .  A
C288       C2823   1.484       .  S
O289        C295   1.273       .  A
O289       Cd292   2.520       .  S
C290        O298   1.265       .  A
C290       C2563   1.483       .  S
C291        O296   1.273       .  A
C291        O294   1.267       .  A
C291       C2520   1.481       .  S
Cd292       O299   2.411       .  S
Cd292       O298   2.389       .  S
Cd292       O297   2.412       .  S
Cd292       O293   2.497       .  S
Cd292       O296   2.500       .  S
Cd292       O294   2.410       .  S
C295        O299   1.265       .  A
C295       C2530   1.485       .  S
O300        C303   1.272       .  A
O300       Cd305   2.507       .  S
C301        O310   1.264       .  A
C301        O306   1.272       .  A
C301       C2533   1.479       .  S
O302        C308   1.272       .  A
O302       Cd305   2.527       .  S
C303        O311   1.267       .  A
C303       C2510   1.483       .  S
C304        O309   1.273       .  A
C304        O307   1.267       .  A
C304       C2833   1.482       .  S
Cd305       O312   2.409       .  S
Cd305       O311   2.415       .  S
Cd305       O310   2.408   1_545  S
Cd305       O306   2.519   1_545  S
Cd305       O309   2.496   1_545  S
Cd305       O307   2.421   1_545  S
C308        O312   1.265       .  A
C308       C2603   1.484       .  S
O313        C316   1.273       .  A
O313       Cd318   2.512       .  S
C314        O323   1.268       .  A
C314        O319   1.273       .  A
C314       C2640   1.482       .  S
O315        C321   1.273       .  A
O315       Cd318   2.504       .  S
C316        O324   1.265       .  A
C316       C2500   1.481       .  S
C317        O322   1.274       .  A
C317        O320   1.267       .  A
C317       C2513   1.478       .  S
Cd318       O325   2.396       .  S
Cd318       O324   2.395       .  S
Cd318       O323   2.421       .  S
Cd318       O319   2.484       .  S
Cd318       O322   2.491       .  S
Cd318       O320   2.386       .  S
C321        O325   1.265       .  A
C321       C2490   1.479       .  S
O326        C329   1.271       .  A
O326       Cd331   2.505       .  S
C327        O336   1.263       .  A
C327        O332   1.271       .  A
C327       C2493   1.473       .  S
O328        C334   1.272       .  A
O328       Cd331   2.522       .  S
C329        O337   1.267       .  A
C329       C2470   1.484       .  S
C330        O335   1.272       .  A
C330        O333   1.267       .  A
C330       C2663   1.481       .  S
Cd331       O338   2.401       .  S
Cd331       O337   2.418       .  S
Cd331       O336   2.400       .  S
Cd331       O332   2.509       .  S
Cd331       O335   2.497       .  S
Cd331       O333   2.420       .  S
C334        O338   1.264       .  A
C334       C2480   1.483       .  S
O339        C342   1.264       .  A
O339       Cd344   2.397       .  S
C340        O349   1.268       .  A
C340        O345   1.272       .  A
C340       C2440   1.484       .  S
O341        C347   1.272       .  A
O341       Cd344   2.517       .  S
C342        O350   1.272       .  A
C342       C2483   1.481       .  S
C343        O348   1.272       .  A
C343        O346   1.267       .  A
C343       C2453   1.479       .  S
Cd344       O351   2.403       .  S
Cd344       O350   2.526       .  S
Cd344       O349   2.432       .  S
Cd344       O345   2.494       .  S
Cd344       O348   2.499       .  S
Cd344       O346   2.406       .  S
C347        O351   1.265       .  A
C347       C2460   1.482       .  S
O352        C355   1.273       .  A
O352       Cd357   2.510       .  S
C353        O362   1.264       .  A
C353        O358   1.273       .  A
C353       C2463   1.478       .  S
O354        C360   1.272       .  A
O354       Cd357   2.512       .  S
C355        O363   1.266       .  A
C355       C2583   1.483       .  S
C356        O361   1.273       .  A
C356        O359   1.267       .  A
C356       C2430   1.480       .  S
Cd357       O364   2.410       .  S
Cd357       O363   2.405       .  S
Cd357       O362   2.390       .  S
Cd357       O358   2.518       .  S
Cd357       O361   2.497       .  S
Cd357       O359   2.414       .  S
C360        O364   1.265       .  A
C360       C2503   1.482       .  S
O365        C368   1.271       .  A
O365       Cd370   2.496       .  S
C366        O375   1.263       .  A
C366        O371   1.271       .  A
C366       C2420   1.473       .  S
O367        C373   1.271       .  A
O367       Cd370   2.523       .  S
C368        O376   1.267       .  A
C368       C2400   1.482       .  S
C369        O374   1.272       .  A
C369        O372   1.266       .  A
C369       C2713   1.480       .  S
Cd370       O377   2.396       .  S
Cd370       O376   2.417       .  S
Cd370       O375   2.388       .  S
Cd370       O371   2.520       .  S
Cd370       O374   2.502       .  S
Cd370       O372   2.416       .  S
C373        O377   1.264       .  A
C373       C2410   1.481       .  S
O378        C381   1.265       .  A
O378       Cd383   2.406       .  S
C379        O388   1.268       .  A
C379        O384   1.273       .  A
C379       C2753   1.487       .  S
O380        C386   1.273       .  A
O380       Cd383   2.516   1_554  S
C381        O389   1.274       .  A
C381       C2393   1.488       .  S
C382        O387   1.273       .  A
C382        O385   1.267       .  A
C382       C2380   1.481       .  S
Cd383       O390   2.393   1_556  S
Cd383       O389   2.538       .  S
Cd383       O388   2.442   1_556  S
Cd383       O384   2.494   1_556  S
Cd383       O387   2.490       .  S
Cd383       O385   2.413       .  S
C386        O390   1.266       .  A
C386       C2423   1.482       .  S
O391        C394   1.272       .  A
O391       Cd396   2.496       .  S
C392        O401   1.265       .  A
C392        O397   1.273       .  A
C392       C2370   1.478       .  S
O393        C399   1.274       .  A
O393       Cd396   2.529       .  S
C394        O402   1.268       .  A
C394       C2350   1.484       .  S
C395        O400   1.273       .  A
C395        O398   1.266       .  A
C395       C2360   1.483       .  S
Cd396       O403   2.413       .  S
Cd396       O402   2.418       .  S
Cd396       O401   2.384       .  S
Cd396       O397   2.516       .  S
Cd396       O400   2.510       .  S
Cd396       O398   2.431       .  S
C399        O403   1.266       .  A
C399       C2390   1.487       .  S
O404        C407   1.272       .  A
O404       Cd409   2.481       .  S
C405        O414   1.265       .  A
C405        O410   1.274       .  A
C405       C2413   1.473       .  S
O406        C412   1.274       .  A
O406       Cd409   2.499   1_554  S
C407        O415   1.268       .  A
C407       C2330   1.481       .  S
C408        O413   1.274       .  A
C408        O411   1.265       .  A
C408       C2373   1.483       .  S
Cd409       O416   2.424   1_556  S
Cd409       O415   2.423       .  S
Cd409       O414   2.368   1_556  S
Cd409       O410   2.507   1_556  S
Cd409       O413   2.520       .  S
Cd409       O411   2.389       .  S
C412        O416   1.268       .  A
C412       C2340   1.483       .  S
O417        C420   1.273       .  A
O417       Cd422   2.512       .  S
C418        O427   1.264       .  A
C418        O423   1.273       .  A
C418       C2320   1.485       .  S
O419        C425   1.272       .  A
O419       Cd422   2.509       .  S
C420        O428   1.268       .  A
C420       C2300   1.486       .  S
C421        O426   1.272       .  A
C421        O424   1.266       .  A
C421       C2310   1.481       .  S
Cd422       O429   2.404       .  S
Cd422       O428   2.415       .  S
Cd422       O427   2.398       .  S
Cd422       O423   2.527       .  S
Cd422       O426   2.508       .  S
Cd422       O424   2.406       .  S
C425        O429   1.266       .  A
C425       C2473   1.479       .  S
O430        C433   1.272       .  A
O430       Cd435   2.521   1_565  S
C431        O440   1.265       .  A
C431        O436   1.271       .  A
C431       C2450   1.482       .  S
O432        C438   1.272       .  A
O432       Cd435   2.497   1_565  S
C433        O441   1.264       .  A
C433       C2293   1.478       .  S
C434        O439   1.271       .  A
C434        O437   1.263       .  A
C434       C2323   1.483       .  S
Cd435       O442   2.425   1_545  S
Cd435       O441   2.387   1_545  S
Cd435       O440   2.403       .  S
Cd435       O436   2.510       .  S
Cd435       O439   2.538       .  S
Cd435       O437   2.403       .  S
C438        O442   1.266       .  A
C438       C2280   1.481       .  S
O443        C446   1.273       .  A
O443       Cd448   2.489       .  S
C444        O453   1.264       .  A
C444        O449   1.273       .  A
C444       C2270   1.483       .  S
O445        C451   1.271       .  A
O445       Cd448   2.507       .  S
C446        O454   1.268       .  A
C446       C2250   1.483       .  S
C447        O452   1.272       .  A
C447        O450   1.266       .  A
C447       C2290   1.482       .  S
Cd448       O455   2.424       .  S
Cd448       O454   2.421       .  S
Cd448       O453   2.380       .  S
Cd448       O449   2.535       .  S
Cd448       O452   2.514       .  S
Cd448       O450   2.399       .  S
C451        O455   1.266       .  A
C451       C2260   1.482       .  S
O456        C459   1.272   1_545  A
O456       Cd461   2.501       .  S
C457        O466   1.264       .  A
C457        O462   1.272       .  A
C457       C2313   1.476       .  S
O458        C464   1.272       .  A
O458       Cd461   2.540   1_565  S
C459        O467   1.267       .  A
C459       C2230   1.481       .  S
C460        O465   1.273       .  A
C460        O463   1.267       .  A
C460       C2240   1.483       .  S
Cd461       O468   2.388   1_545  S
Cd461       O467   2.407   1_545  S
Cd461       O466   2.391       .  S
Cd461       O462   2.518       .  S
Cd461       O465   2.503       .  S
Cd461       O463   2.416       .  S
C464        O468   1.264       .  A
C464       C2273   1.484       .  S
O469        C472   1.273       .  A
O469       Cd474   2.522       .  S
C470        O479   1.267       .  A
C470        O475   1.273       .  A
C470       C2200   1.483       .  S
O471        C477   1.273       .  A
O471       Cd474   2.517   1_556  S
C472        O480   1.264       .  A
C472       C2220   1.483       .  S
C473        O478   1.272       .  A
C473        O476   1.266       .  A
C473       C2543   1.482       .  S
Cd474       O481   2.411   1_554  S
Cd474       O480   2.393       .  S
Cd474       O479   2.414   1_554  S
Cd474       O475   2.501   1_554  S
Cd474       O478   2.506       .  S
Cd474       O476   2.425       .  S
C477        O481   1.266       .  A
C477       C2210   1.486       .  S
O482        C485   1.272       .  A
O482       Cd487   2.497       .  S
C483        O492   1.265       .  A
C483        O488   1.273       .  A
C483       C2190   1.480       .  S
O484        C490   1.272       .  A
O484       Cd487   2.524       .  S
C485        O493   1.266       .  A
C485       C2523   1.482       .  S
C486        O491   1.272       .  A
C486        O489   1.266       .  A
C486       C2770   1.481       .  S
Cd487       O494   2.408       .  S
Cd487       O493   2.412       .  S
Cd487       O492   2.388       .  S
Cd487       O488   2.521       .  S
Cd487       O491   2.494       .  S
Cd487       O489   2.419       .  S
C490        O494   1.265       .  A
C490       C2223   1.480       .  S
O495        C498   1.273       .  A
O495       Cd500   2.512       .  S
C496        O505   1.264       .  A
C496        O501   1.273       .  A
C496       C2213   1.480       .  S
O497        C503   1.272       .  A
O497       Cd500   2.527       .  S
C498        O506   1.267       .  A
C498       C2263   1.486       .  S
C499        O504   1.273       .  A
C499        O502   1.267       .  A
C499       C2170   1.482       .  S
Cd500       O507   2.413       .  S
Cd500       O506   2.425       .  S
Cd500       O505   2.408       .  S
Cd500       O501   2.531       .  S
Cd500       O504   2.494       .  S
Cd500       O502   2.430       .  S
C503        O507   1.265       .  A
C503       C2180   1.485       .  S
O508        C511   1.274       .  A
O508       Cd513   2.520       .  S
C509        O518   1.268       .  A
C509        O514   1.274   1_554  A
C509       C2703   1.485       .  S
O510        C516   1.273       .  A
O510       Cd513   2.509   1_554  S
C511        O519   1.265       .  A
C511       C2183   1.483       .  S
C512        O517   1.273       .  A
C512        O515   1.267       .  A
C512       C2233   1.477       .  S
Cd513       O520   2.403   1_556  S
Cd513       O519   2.390       .  S
Cd513       O518   2.418   1_556  S
Cd513       O514   2.501       .  S
Cd513       O517   2.497       .  S
Cd513       O515   2.395       .  S
C516        O520   1.267       .  A
C516       C2193   1.483       .  S
O521        C524   1.261       .  A
O521       Cd526   2.440       .  S
C522        O531   1.267       .  A
C522        O527   1.272       .  A
C522       C2173   1.484       .  S
O523        C529   1.272       .  A
O523       Cd526   2.501       .  S
C524        O532   1.269       .  A
C524       C2160   1.481       .  S
C525        O530   1.270       .  A
C525        O528   1.263       .  A
C525       C2933   1.483       .  S
Cd526       O533   2.422       .  S
Cd526       O532   2.524       .  S
Cd526       O531   2.430       .  S
Cd526       O527   2.495       .  S
Cd526       O530   2.526       .  S
Cd526       O528   2.427       .  S
C529        O533   1.266       .  A
C529       C2150   1.480       .  S
O534        C537   1.270       .  A
O534       Cd539   2.522       .  S
C535        O544   1.268       .  A
C535        O540   1.265       .  A
C535       C2140   1.487       .  S
O536        C542   1.263       .  A
O536       Cd539   2.460       .  S
C537        O545   1.263       .  A
C537       C2993   1.482       .  S
C538        O543   1.267       .  A
C538        O541   1.264       .  A
C538       C2333   1.480       .  S
Cd539       O546   2.492       .  S
Cd539       O545   2.425       .  S
Cd539       O544   2.503       .  S
Cd539       O540   2.458       .  S
Cd539       O543   2.495       .  S
Cd539       O541   2.443       .  S
C542        O546   1.264       .  A
C542       C2163   1.481       .  S
O547        C550   1.270       .  A
O547       Cd552   2.517       .  S
C548        O557   1.265       .  A
C548        O553   1.263       .  A
C548       C2153   1.483       .  S
O549        C555   1.266       .  A
O549       Cd552   2.484       .  S
C550        O558   1.265       .  A
C550       C2120   1.484       .  S
C551        O556   1.268       .  A
C551        O554   1.263       .  A
C551       C2203   1.480       .  S
Cd552       O559   2.462       .  S
Cd552       O558   2.420       .  S
Cd552       O557   2.504       .  S
Cd552       O553   2.461       .  S
Cd552       O556   2.515       .  S
Cd552       O554   2.429       .  S
C555        O559   1.264       .  A
C555       C2130   1.478       .  S
O560        C563   1.262       .  A
O560       Cd565   2.448       .  S
C561        O570   1.268       .  A
C561        O566   1.270       .  A
C561       C2363   1.486       .  S
O562        C568   1.265       .  A
O562       Cd565   2.442       .  S
C563        O571   1.267       .  A
C563       C2133   1.478       .  S
C564        O569   1.270       .  A
C564        O567   1.263       .  A
C564       C2110   1.484       .  S
Cd565       O572   2.517       .  S
Cd565       O571   2.509       .  S
Cd565       O570   2.451       .  S
Cd565       O566   2.493       .  S
Cd565       O569   2.536       .  S
Cd565       O567   2.427       .  S
C568        O572   1.271       .  A
C568       C2143   1.485       .  S
O573        C576   1.274       .  A
O573       Cd578   2.490       .  S
C574        O583   1.264       .  A
C574        O579   1.273       .  A
C574       C2100   1.485       .  S
O575        C581   1.272       .  A
O575       Cd578   2.505       .  S
C576        O584   1.268       .  A
C576       C2070   1.482       .  S
C577        O582   1.273       .  A
C577        O580   1.266       .  A
C577       C2090   1.483       .  S
Cd578       O585   2.429       .  S
Cd578       O584   2.404       .  S
Cd578       O583   2.395       .  S
Cd578       O579   2.530       .  S
Cd578       O582   2.513       .  S
Cd578       O580   2.416       .  S
C581        O585   1.266       .  A
C581       C2080   1.482       .  S
O586        C589   1.270       .  A
O586       Cd591   2.531   1_556  S
C587        O596   1.264       .  A
C587        O592   1.271       .  A
C587       C2093   1.478       .  S
O588        C594   1.270       .  A
O588       Cd591   2.532   1_556  S
C589        O597   1.265       .  A
C589       C2040   1.486       .  S
C590        O595   1.272       .  A
C590        O593   1.266       .  A
C590       C2050   1.488       .  S
Cd591       O598   2.427   1_554  S
Cd591       O597   2.431   1_554  S
Cd591       O596   2.405       .  S
Cd591       O592   2.520       .  S
Cd591       O595   2.521       .  S
Cd591       O593   2.435       .  S
C594        O598   1.263       .  A
C594       C2060   1.483       .  S
O599        C602   1.273       .  A
O599       Cd604   2.496       .  S
C600        O609   1.265       .  A
C600        O605   1.273       .  A
C600       C2063   1.485       .  S
O601        C607   1.272       .  A
O601       Cd604   2.516       .  S
C602        O610   1.268       .  A
C602       C2010   1.484       .  S
C603        O608   1.273       .  A
C603        O606   1.266       .  A
C603       C2030   1.476       .  S
Cd604       O611   2.403       .  S
Cd604       O610   2.423       .  S
Cd604       O609   2.402       .  S
Cd604       O605   2.523       .  S
Cd604       O608   2.497       .  S
Cd604       O606   2.391       .  S
C607        O611   1.266       .  A
C607       C2020   1.481       .  S
O612        C615   1.270   1_556  A
O612       Cd617   2.499       .  S
C613        O622   1.263       .  A
C613        O618   1.269       .  A
C613       C2033   1.472       .  S
O614        C620   1.263       .  A
O614       Cd617   2.402   1_554  S
C615        O623   1.266       .  A
C615       C1990   1.479       .  S
C616        O621   1.271       .  A
C616        O619   1.266       .  A
C616       C2003   1.484       .  S
Cd617       O624   2.540   1_556  S
Cd617       O623   2.403   1_556  S
Cd617       O622   2.397       .  S
Cd617       O618   2.510       .  S
Cd617       O621   2.501       .  S
Cd617       O619   2.432       .  S
C620        O624   1.270       .  A
C620       C2103   1.481       .  S
O625        C628   1.274       .  A
O625       Cd630   2.494       .  S
C626        O635   1.264       .  A
C626        O631   1.274       .  A
C626       C1983   1.481       .  S
O627        C633   1.272       .  A
O627       Cd630   2.497       .  S
C628        O636   1.268       .  A
C628       C2553   1.484       .  S
C629        O634   1.273       .  A
C629        O632   1.266       .  A
C629       C1970   1.481       .  S
Cd630       O637   2.402       .  S
Cd630       O636   2.416       .  S
Cd630       O635   2.374       .  S
Cd630       O631   2.523       .  S
Cd630       O634   2.504       .  S
Cd630       O632   2.394       .  S
C633        O637   1.267       .  A
C633       C1993   1.478       .  S
O638        C641   1.272       .  A
O638       Cd643   2.505       .  S
C639        O648   1.264       .  A
C639        O644   1.272       .  A
C639       C1973   1.478       .  S
O640        C646   1.270       .  A
O640       Cd643   2.522       .  S
C641        O649   1.266       .  A
C641       C1950   1.483       .  S
C642        O647   1.271       .  A
C642        O645   1.267       .  A
C642       C2573   1.479       .  S
Cd643       O650   2.388       .  S
Cd643       O649   2.416       .  S
Cd643       O648   2.388       .  S
Cd643       O644   2.517       .  S
Cd643       O647   2.489       .  S
Cd643       O645   2.422       .  S
C646        O650   1.263       .  A
C646       C1960   1.477       .  S
O651        C654   1.271       .  A
O651       Cd656   2.502       .  S
C652        O661   1.264       .  A
C652        O657   1.271       .  A
C652       C1943   1.476       .  S
O653        C659   1.271       .  A
O653       Cd656   2.529       .  S
C654        O662   1.266       .  A
C654       C2083   1.485       .  S
C655        O660   1.272       .  A
C655        O658   1.267       .  A
C655       C1930   1.483       .  S
Cd656       O663   2.395       .  S
Cd656       O662   2.431       .  S
Cd656       O661   2.411       .  S
Cd656       O657   2.521       .  S
Cd656       O660   2.498       .  S
Cd656       O658   2.423       .  S
C659        O663   1.264       .  A
C659       C1980   1.481       .  S
O664        C667   1.272       .  A
O664       Cd669   2.495       .  S
C665        O674   1.264       .  A
C665        O670   1.272       .  A
C665       C1963   1.480       .  S
O666        C672   1.271       .  A
O666       Cd669   2.514       .  S
C667        O675   1.267       .  A
C667       C1910   1.481       .  S
C668        O673   1.272       .  A
C668        O671   1.265       .  A
C668       C1940   1.481       .  S
Cd669       O676   2.421       .  S
Cd669       O675   2.407       .  S
Cd669       O674   2.377       .  S
Cd669       O670   2.525       .  S
Cd669       O673   2.517       .  S
Cd669       O671   2.400       .  S
C672        O676   1.266       .  A
C672       C1920   1.483       .  S
O677        C680   1.274       .  A
O677       Cd682   2.521       .  S
C678        O687   1.269       .  A
C678        O683   1.274       .  A
C678       C1933   1.484       .  S
O679        C685   1.275       .  A
O679       Cd682   2.527       .  S
C680        O688   1.266       .  A
C680       C1900   1.485       .  S
C681        O686   1.273       .  A
C681        O684   1.267       .  A
C681       C3133   1.481       .  S
Cd682       O689   2.375       .  S
Cd682       O688   2.397       .  S
Cd682       O687   2.417       .  S
Cd682       O683   2.488       .  S
Cd682       O686   2.490       .  S
Cd682       O684   2.412       .  S
C685        O689   1.266       .  A
C685       C1890   1.484       .  S
O690        C693   1.272       .  A
O690       Cd695   2.517       .  S
C691        O700   1.263       .  A
C691        O696   1.271       .  A
C691       C1880   1.479       .  S
O692        C698   1.271       .  A
O692       Cd695   2.532       .  S
C693        O701   1.266       .  A
C693       C3113   1.486       .  S
C694        O699   1.272       .  A
C694        O697   1.267       .  A
C694       C2893   1.483       .  S
Cd695       O702   2.409       .  S
Cd695       O701   2.423       .  S
Cd695       O700   2.414       .  S
Cd695       O696   2.524       .  S
Cd695       O699   2.490       .  S
Cd695       O697   2.427       .  S
C698        O702   1.264       .  A
C698       C1903   1.483       .  S
O703        C706   1.273       .  A
O703       Cd708   2.512       .  S
C704        O713   1.264       .  A
C704        O709   1.272       .  A
C704       C1893   1.483       .  S
O705        C711   1.271       .  A
O705       Cd708   2.515       .  S
C706        O714   1.266       .  A
C706       C2343   1.486       .  S
C707        O712   1.272       .  A
C707        O710   1.268       .  A
C707       C1913   1.478       .  S
Cd708       O715   2.405       .  S
Cd708       O714   2.426       .  S
Cd708       O713   2.405       .  S
Cd708       O709   2.534       .  S
Cd708       O712   2.487       .  S
Cd708       O710   2.413       .  S
C711        O715   1.264       .  A
C711       C1870   1.478       .  S
O716        C719   1.273       .  A
O716       Cd721   2.488       .  S
C717        O726   1.265       .  A
C717        O722   1.273       .  A
C717       C1873   1.483       .  S
O718        C724   1.273       .  A
O718       Cd721   2.507       .  S
C719        O727   1.268       .  A
C719       C2873   1.483       .  S
C720        O725   1.273       .  A
C720        O723   1.266       .  A
C720       C1883   1.482       .  S
Cd721       O728   2.401       .  S
Cd721       O727   2.421       .  S
Cd721       O726   2.398       .  S
Cd721       O722   2.516       .  S
Cd721       O725   2.508       .  S
Cd721       O723   2.409       .  S
C724        O728   1.266       .  A
C724       C2403   1.479       .  S
O729        C732   1.271       .  A
O729       Cd734   2.509       .  S
C730        O739   1.265       .  A
C730        O735   1.272       .  A
C730       C1860   1.474       .  S
O731        C737   1.271       .  A
O731       Cd734   2.520       .  S
C732        O740   1.266       .  A
C732       C1840   1.485       .  S
C733        O738   1.272       .  A
C733        O736   1.266       .  A
C733       C2253   1.481       .  S
Cd734       O741   2.405       .  S
Cd734       O740   2.423       .  S
Cd734       O739   2.397       .  S
Cd734       O735   2.506       .  S
Cd734       O738   2.496       .  S
Cd734       O736   2.424       .  S
C737        O741   1.264       .  A
C737       C1850   1.481       .  S
O742        C745   1.274       .  A
O742       Cd747   2.486       .  S
C743        O752   1.265       .  A
C743        O748   1.273       .  A
C743       C1830   1.483       .  S
O744        C750   1.273       .  A
O744       Cd747   2.507   1_655  S
C745        O753   1.269       .  A
C745       C2283   1.483       .  S
C746        O751   1.274       .  A
C746        O749   1.266       .  A
C746       C1863   1.480       .  S
Cd747       O754   2.404   1_455  S
Cd747       O753   2.415       .  S
Cd747       O752   2.392   1_455  S
Cd747       O748   2.516   1_455  S
Cd747       O751   2.501       .  S
Cd747       O749   2.394       .  S
C750        O754   1.266       .  A
C750       C1820   1.482       .  S
O755        C758   1.272       .  A
O755       Cd760   2.507       .  S
C756        O765   1.264       .  A
C756        O761   1.272       .  A
C756       C1810   1.475       .  S
O757        C763   1.272       .  A
O757       Cd760   2.519       .  S
C758        O766   1.267       .  A
C758       C1790   1.484       .  S
C759        O764   1.272       .  A
C759        O762   1.266       .  A
C759       C1800   1.484       .  S
Cd760       O767   2.405       .  S
Cd760       O766   2.421       .  S
Cd760       O765   2.397       .  S
Cd760       O761   2.514       .  S
Cd760       O764   2.514       .  S
Cd760       O762   2.421       .  S
C763        O767   1.265       .  A
C763       C1833   1.480       .  S
O768        C771   1.272   1_455  A
O768       Cd773   2.490       .  S
C769        O778   1.264       .  A
C769        O774   1.273       .  A
C769       C1853   1.483       .  S
O770        C776   1.272       .  A
O770       Cd773   2.504       .  S
C771        O779   1.269       .  A
C771       C1770   1.484       .  S
C772        O777   1.273       .  A
C772        O775   1.266       .  A
C772       C1813   1.482       .  S
Cd773       O780   2.408       .  S
Cd773       O779   2.431   1_455  S
Cd773       O778   2.387       .  S
Cd773       O774   2.525       .  S
Cd773       O777   2.514   1_455  S
Cd773       O775   2.401   1_455  S
C776        O780   1.267       .  A
C776       C1780   1.482       .  S
O781        C784   1.275       .  A
O781       Cd786   2.532       .  S
C782        O791   1.269       .  A
C782        O787   1.275       .  A
C782       C1740   1.489       .  S
O783        C789   1.275       .  A
O783       Cd786   2.511       .  S
C784        O792   1.266       .  A
C784       C1760   1.487       .  S
C785        O790   1.274       .  A
C785        O788   1.267       .  A
C785       C1953   1.482       .  S
Cd786       O793   2.398       .  S
Cd786       O792   2.390       .  S
Cd786       O791   2.422       .  S
Cd786       O787   2.509       .  S
Cd786       O790   2.505       .  S
Cd786       O788   2.409       .  S
C789        O793   1.267       .  A
C789       C1750   1.485       .  S
O794        C797   1.274       .  A
O794       Cd799   2.510   1_556  S
C795        O804   1.265       .  A
C795        O800   1.274       .  A
C795       C1753   1.479       .  S
O796        C802   1.273       .  A
O796       Cd799   2.509   1_556  S
C797        O805   1.267       .  A
C797       C1713   1.485       .  S
C798        O803   1.273       .  A
C798        O801   1.267       .  A
C798       C1720   1.480       .  S
Cd799       O806   2.404   1_554  S
Cd799       O805   2.416   1_554  S
Cd799       O804   2.405       .  S
Cd799       O800   2.514       .  S
Cd799       O803   2.490       .  S
Cd799       O801   2.417       .  S
C802        O806   1.266       .  A
C802       C1730   1.482       .  S
O807        C810   1.273       .  A
O807       Cd812   2.498       .  S
C808        O817   1.265       .  A
C808        O813   1.273       .  A
C808       C1733   1.484       .  S
O809        C815   1.273       .  A
O809       Cd812   2.499       .  S
C810        O818   1.267       .  A
C810       C3023   1.482       .  S
C811        O816   1.272       .  A
C811        O814   1.265       .  A
C811       C1700   1.483       .  S
Cd812       O819   2.417       .  S
Cd812       O818   2.418       .  S
Cd812       O817   2.401       .  S
Cd812       O813   2.521       .  S
Cd812       O816   2.522       .  S
Cd812       O814   2.409       .  S
C815        O819   1.268       .  A
C815       C1690   1.483       .  S
O820        C823   1.272   1_556  A
O820       Cd825   2.523       .  S
C821        O830   1.263       .  A
C821        O826   1.272       .  A
C821       C1703   1.478       .  S
O822        C828   1.271       .  A
O822       Cd825   2.535   1_554  S
C823        O831   1.266       .  A
C823       C1923   1.485       .  S
C824        O829   1.271       .  A
C824        O827   1.268       .  A
C824       C2980   1.481       .  S
Cd825       O832   2.408   1_556  S
Cd825       O831   2.408   1_556  S
Cd825       O830   2.401       .  S
Cd825       O826   2.527       .  S
Cd825       O829   2.487       .  S
Cd825       O827   2.439       .  S
C828        O832   1.264       .  A
C828       C1763   1.483       .  S
O833        C836   1.273   1_455  A
O833       Cd838   2.509       .  S
C834        O843   1.265       .  A
C834        O839   1.274       .  A
C834       C1680   1.486       .  S
O835        C841   1.272       .  A
O835       Cd838   2.503       .  S
C836        O844   1.268       .  A
C836       C1660   1.485       .  S
C837        O842   1.273       .  A
C837        O840   1.266       .  A
C837       C1670   1.481       .  S
Cd838       O845   2.421       .  S
Cd838       O844   2.421   1_455  S
Cd838       O843   2.404       .  S
Cd838       O839   2.522       .  S
Cd838       O842   2.513   1_455  S
Cd838       O840   2.394   1_455  S
C841        O845   1.267       .  A
C841       C1710   1.484       .  S
O846        C849   1.273       .  A
O846       Cd851   2.522       .  S
C847        O856   1.264       .  A
C847        O852   1.273       .  A
C847       C1650   1.479       .  S
O848        C854   1.271       .  A
O848       Cd851   2.519       .  S
C849        O857   1.266       .  A
C849       C1693   1.486       .  S
C850        O855   1.272       .  A
C850        O853   1.267       .  A
C850       C2303   1.484       .  S
Cd851       O858   2.432       .  S
Cd851       O857   2.416       .  S
Cd851       O856   2.390       .  S
Cd851       O852   2.527       .  S
Cd851       O855   2.514       .  S
Cd851       O853   2.419       .  S
C854        O858   1.265       .  A
C854       C1683   1.485       .  S
O859        C862   1.271       .  A
O859       Cd864   2.516       .  S
C860        O869   1.263       .  A
C860        O865   1.271       .  A
C860       C1673   1.477       .  S
O861        C867   1.270       .  A
O861       Cd864   2.525       .  S
C862        O870   1.266       .  A
C862       C2023   1.484       .  S
C863        O868   1.271       .  A
C863        O866   1.266       .  A
C863       C1630   1.476       .  S
Cd864       O871   2.400       .  S
Cd864       O870   2.413       .  S
Cd864       O869   2.403       .  S
Cd864       O865   2.521       .  S
Cd864       O868   2.490       .  S
Cd864       O866   2.410       .  S
C867        O871   1.264       .  A
C867       C1640   1.480       .  S
O872        C875   1.275       .  A
O872       Cd877   2.525   1_655  S
C873        O882   1.268       .  A
C873        O878   1.274       .  A
C873       C2243   1.484       .  S
O874        C880   1.274       .  A
O874       Cd877   2.504       .  S
C875        O883   1.266       .  A
C875       C1643   1.483       .  S
C876        O881   1.274       .  A
C876        O879   1.267       .  A
C876       C2043   1.485       .  S
Cd877       O884   2.397       .  S
Cd877       O883   2.376   1_455  S
Cd877       O882   2.407       .  S
Cd877       O878   2.500       .  S
Cd877       O881   2.510   1_455  S
Cd877       O879   2.399   1_455  S
C880        O884   1.267       .  A
C880       C1653   1.482       .  S
O885        C888   1.271       .  A
O885       Cd890   2.504       .  S
C886        O895   1.268       .  A
C886        O891   1.272       .  A
C886       C1633   1.481       .  S
O887        C893   1.272       .  A
O887       Cd890   2.508       .  S
C888        O896   1.264       .  A
C888       C1620   1.480       .  S
C889        O894   1.272       .  A
C889        O892   1.265       .  A
C889       C3073   1.482       .  S
Cd890       O897   2.412       .  S
Cd890       O896   2.404       .  S
Cd890       O895   2.418       .  S
Cd890       O891   2.485       .  S
Cd890       O894   2.499       .  S
Cd890       O892   2.414       .  S
C893        O897   1.266       .  A
C893       C1610   1.479       .  S
O898        C901   1.269       .  A
O898       Cd903   2.512       .  S
C899        O908   1.264       .  A
C899        O904   1.269       .  A
C899       C1600   1.477       .  S
O900        C906   1.269       .  A
O900       Cd903   2.520       .  S
C901        O909   1.265       .  A
C901       C3063   1.483       .  S
C902        O907   1.270       .  A
C902        O905   1.265       .  A
C902       C1773   1.480       .  S
Cd903       O910   2.413       .  S
Cd903       O909   2.432       .  S
Cd903       O908   2.415       .  S
Cd903       O904   2.516       .  S
Cd903       O907   2.506       .  S
Cd903       O905   2.421       .  S
C906        O910   1.262       .  A
C906       C1623   1.476       .  S
O911        C914   1.264       .  A
O911       Cd916   2.431       .  S
C912        O921   1.263       .  A
C912        O917   1.269       .  A
C912       C2383   1.483       .  S
O913        C919   1.269       .  A
O913       Cd916   2.506       .  S
C914        O922   1.268       .  A
C914       C1613   1.481       .  S
C915        O920   1.262       .  A
C915        O918   1.268       .  A
C915       C1590   1.483       .  S
Cd916       O923   2.436       .  S
Cd916       O922   2.507       .  S
Cd916       O921   2.431       .  S
Cd916       O917   2.519       .  S
Cd916       O920   2.434       .  S
Cd916       O918   2.524       .  S
C919        O923   1.265       .  A
C919       C1663   1.483       .  S
O924        C927   1.264       .  A
O924       Cd929   2.406       .  S
C925        O934   1.269       .  A
C925        O930   1.273       .  A
C925       C1803   1.488       .  S
O926        C932   1.273       .  A
O926       Cd929   2.521       .  S
C927        O935   1.273       .  A
C927       C1593   1.485       .  S
C928        O933   1.272       .  A
C928        O931   1.266       .  A
C928       C2353   1.484       .  S
Cd929       O936   2.398       .  S
Cd929       O935   2.533       .  S
Cd929       O934   2.438       .  S
Cd929       O930   2.501       .  S
Cd929       O933   2.509       .  S
Cd929       O931   2.422       .  S
C932        O936   1.265       .  A
C932       C1603   1.481       .  S
O937        C940   1.274       .  A
O937       Cd942   2.527       .  S
C938        O947   1.268       .  A
C938        O943   1.274       .  A
C938       C2433   1.485       .  S
O939        C945   1.274       .  A
O939       Cd942   2.502       .  S
C940        O948   1.265       .  A
C940       C1580   1.486       .  S
C941        O946   1.274       .  A
C941        O944   1.267       .  A
C941       C1560   1.483       .  S
Cd942       O949   2.397       .  S
Cd942       O948   2.396       .  S
Cd942       O947   2.422       .  S
Cd942       O943   2.497       .  S
Cd942       O946   2.508       .  S
Cd942       O944   2.405       .  S
C945        O949   1.267       .  A
C945       C1573   1.481       .  S
O950        C953   1.271   1_455  A
O950       Cd955   2.506       .  S
C951        O960   1.264       .  A
C951        O956   1.271       .  A
C951       C1570   1.478       .  S
O952        C958   1.270       .  A
O952       Cd955   2.516   1_655  S
C953        O961   1.266       .  A
C953       C1540   1.485       .  S
C954        O959   1.271       .  A
C954        O957   1.266       .  A
C954       C2443   1.482       .  S
Cd955       O962   2.419   1_455  S
Cd955       O961   2.426   1_455  S
Cd955       O960   2.410       .  S
Cd955       O956   2.515       .  S
Cd955       O959   2.496       .  S
Cd955       O957   2.420       .  S
C958        O962   1.264       .  A
C958       C1550   1.479       .  S
O963        C966   1.274       .  A
O963       Cd968   2.519       .  S
C964        O973   1.268       .  A
C964        O969   1.273       .  A
C964       C3143   1.485       .  S
O965        C971   1.273       .  A
O965       Cd968   2.504       .  S
C966        O974   1.264       .  A
C966       C1553   1.481       .  S
C967        O972   1.272       .  A
C967        O970   1.266       .  A
C967       C1520   1.479       .  S
Cd968       O975   2.397       .  S
Cd968       O974   2.381       .  S
Cd968       O973   2.424       .  S
Cd968       O969   2.496       .  S
Cd968       O972   2.493       .  S
Cd968       O970   2.413       .  S
C971        O975   1.266       .  A
C971       C1530   1.480       .  S
O976        C979   1.272       .  A
O976       Cd981   2.511       .  S
C977        O986   1.264       .  A
C977        O982   1.271       .  A
C977       C1533   1.474       .  S
O978        C984   1.271       .  A
O978       Cd981   2.525       .  S
C979        O987   1.265       .  A
C979       C1510   1.484       .  S
C980        O985   1.272       .  A
C980        O983   1.267       .  A
C980       C3053   1.484       .  S
Cd981       O988   2.412       .  S
Cd981       O987   2.416       .  S
Cd981       O986   2.402   1_455  S
Cd981       O982   2.518   1_455  S
Cd981       O985   2.504   1_455  S
Cd981       O983   2.434   1_455  S
C984        O988   1.264       .  A
C984       C1583   1.481       .  S
O989        C992   1.273       .  A
O989       Cd994   2.538       .  S
C990        O999   1.268       .  A
C990        O995   1.273       .  A
C990       C1480   1.485       .  S
O991        C997   1.273       .  A
O991       Cd994   2.521       .  S
C992       O1000   1.265       .  A
C992       C1500   1.487       .  S
C993        O998   1.273       .  A
C993        O996   1.267       .  A
C993       C1513   1.482       .  S
Cd994      O1001   2.395       .  S
Cd994      O1000   2.401       .  S
Cd994       O999   2.439       .  S
Cd994       O995   2.486       .  S
Cd994       O998   2.497       .  S
Cd994       O996   2.416       .  S
C997       O1001   1.265       .  A
C997       C1490   1.483       .  S
O1002      C1005   1.272       .  A
O1002     Cd1007   2.508       .  S
C1003      O1012   1.265       .  A
C1003      O1008   1.273       .  A
C1003      C1470   1.480       .  S
O1004      C1010   1.273       .  A
O1004     Cd1007   2.537       .  S
C1005      O1013   1.267       .  A
C1005      C1563   1.486       .  S
C1006      O1011   1.272       .  A
C1006      O1009   1.267       .  A
C1006      C1743   1.488       .  S
Cd1007     O1014   2.401       .  S
Cd1007     O1013   2.430       .  S
Cd1007     O1012   2.393       .  S
Cd1007     O1008   2.530       .  S
Cd1007     O1011   2.519       .  S
Cd1007     O1009   2.438       .  S
C1010      O1014   1.265       .  A
C1010      C1503   1.486       .  S
O1015      C1018   1.273       .  A
O1015     Cd1020   2.502       .  S
C1016      O1025   1.264       .  A
C1016      O1021   1.273       .  A
C1016      C1493   1.477       .  S
O1017      C1023   1.273       .  A
O1017     Cd1020   2.528       .  S
C1018      O1026   1.267       .  A
C1018      C2783   1.483       .  S
C1019      O1024   1.272       .  A
C1019      O1022   1.267       .  A
C1019      C1450   1.483       .  S
Cd1020     O1027   2.394       .  S
Cd1020     O1026   2.413       .  S
Cd1020     O1025   2.391       .  S
Cd1020     O1021   2.517       .  S
Cd1020     O1024   2.497       .  S
Cd1020     O1022   2.432       .  S
C1023      O1027   1.265       .  A
C1023      C1460   1.484       .  S
O1028      C1031   1.274       .  A
O1028     Cd1033   2.495       .  S
C1029      O1038   1.266       .  A
C1029      O1034   1.274       .  A
C1029      C1463   1.485       .  S
O1030      C1036   1.275       .  A
O1030     Cd1033   2.509       .  S
C1031      O1039   1.268       .  A
C1031      C1723   1.484       .  S
C1032      O1037   1.274       .  A
C1032      O1035   1.267       .  A
C1032      C1473   1.486       .  S
Cd1033     O1040   2.400       .  S
Cd1033     O1039   2.420       .  S
Cd1033     O1038   2.394       .  S
Cd1033     O1034   2.523       .  S
Cd1033     O1037   2.520       .  S
Cd1033     O1035   2.403       .  S
C1036      O1040   1.267       .  A
C1036      C2740   1.485       .  S
O1041      C1044   1.271       .  A
O1041     Cd1046   2.507       .  S
C1042      O1051   1.262       .  A
C1042      O1047   1.268       .  A
C1042      C1440   1.480       .  S
O1043      C1049   1.269       .  A
O1043     Cd1046   2.533       .  S
C1044      O1052   1.267       .  A
C1044      C1453   1.486       .  S
C1045      O1050   1.270       .  A
C1045      O1048   1.265       .  A
C1045      C1430   1.480       .  S
Cd1046     O1053   2.436       .  S
Cd1046     O1052   2.440       .  S
Cd1046     O1051   2.448       .  S
Cd1046     O1047   2.515       .  S
Cd1046     O1050   2.508       .  S
Cd1046     O1048   2.432       .  S
C1049      O1053   1.263       .  A
C1049      C2813   1.485       .  S
O1054      C1057   1.271       .  A
O1054     Cd1059   2.521       .  S
C1055      O1064   1.264       .  A
C1055      O1060   1.265       .  A
C1055      C1433   1.483       .  S
O1056      C1062   1.262       .  A
O1056     Cd1059   2.468       .  S
C1057      O1065   1.264       .  A
C1057      C1783   1.481       .  S
C1058      O1063   1.268       .  A
C1058      O1061   1.263       .  A
C1058      C1483   1.485       .  S
Cd1059     O1066   2.496       .  S
Cd1059     O1065   2.405       .  S
Cd1059     O1064   2.463       .  S
Cd1059     O1060   2.496       .  S
Cd1059     O1063   2.516       .  S
Cd1059     O1061   2.454       .  S
C1062      O1066   1.267       .  A
C1062      C1420   1.483       .  S
O1067      C1070   1.270       .  A
O1067     Cd1072   2.492       .  S
C1068      O1077   1.262       .  A
C1068      O1073   1.268       .  A
C1068      C1423   1.477       .  S
O1069      C1075   1.270       .  A
O1069     Cd1072   2.529       .  S
C1070      O1078   1.267       .  A
C1070      C2943   1.484       .  S
C1071      O1076   1.271       .  A
C1071      O1074   1.265       .  A
C1071      C1410   1.480       .  S
Cd1072     O1079   2.424       .  S
Cd1072     O1078   2.443       .  S
Cd1072     O1077   2.437       .  S
Cd1072     O1073   2.512       .  S
Cd1072     O1076   2.506       .  S
Cd1072     O1074   2.423       .  S
C1075      O1079   1.263       .  A
C1075      C1843   1.484       .  S
O1080      C1083   1.270       .  A
O1080     Cd1085   2.509       .  S
C1081      O1090   1.263       .  A
C1081      O1086   1.266       .  A
C1081      C1413   1.481       .  S
O1082      C1088   1.265       .  A
O1082     Cd1085   2.475       .  S
C1083      O1091   1.265       .  A
C1083      C2903   1.483       .  S
C1084      O1089   1.268       .  A
C1084      O1087   1.262       .  A
C1084      C2953   1.478       .  S
Cd1085     O1092   2.484       .  S
Cd1085     O1091   2.427       .  S
Cd1085     O1090   2.443       .  S
Cd1085     O1086   2.496       .  S
Cd1085     O1089   2.510       .  S
Cd1085     O1087   2.426       .  S
C1088      O1092   1.264       .  A
C1088      C1443   1.482       .  S
O1093      C1096   1.271       .  A
O1093     Cd1098   2.504       .  S
C1094      O1103   1.263       .  A
C1094      O1099   1.271       .  A
C1094      C1400   1.478       .  S
O1095      C1101   1.271       .  A
O1095     Cd1098   2.526       .  S
C1096      O1104   1.266       .  A
C1096      C2613   1.482       .  S
C1097      O1102   1.271       .  A
C1097      O1100   1.267       .  A
C1097      C2013   1.481       .  S
Cd1098     O1105   2.399       .  S
Cd1098     O1104   2.410       .  S
Cd1098     O1103   2.395       .  S
Cd1098     O1099   2.526       .  S
Cd1098     O1102   2.494       .  S
Cd1098     O1100   2.426       .  S
C1101      O1105   1.263       .  A
C1101      C1390   1.479       .  S
O1106      C1109   1.273       .  A
O1106     Cd1111   2.526   1_565  S
C1107      O1116   1.268       .  A
C1107      O1112   1.273       .  A
C1107      C2000   1.486       .  S
O1108      C1114   1.273       .  A
O1108     Cd1111   2.516       .  S
C1109      O1117   1.265       .  A
C1109      C1380   1.484       .  S
C1110      O1115   1.272       .  A
C1110      O1113   1.266       .  A
C1110      C2123   1.480       .  S
Cd1111     O1118   2.394       .  S
Cd1111     O1117   2.398   1_545  S
Cd1111     O1116   2.428       .  S
Cd1111     O1112   2.502       .  S
Cd1111     O1115   2.513   1_545  S
Cd1111     O1113   2.408   1_545  S
C1114      O1118   1.266       .  A
C1114      C1403   1.481       .  S
O1119      C1122   1.270       .  A
O1119     Cd1124   2.515       .  S
C1120      O1129   1.263       .  A
C1120      O1125   1.270       .  A
C1120      C1370   1.476       .  S
O1121      C1127   1.271       .  A
O1121     Cd1124   2.532       .  S
C1122      O1130   1.266       .  A
C1122      C2113   1.486       .  S
C1123      O1128   1.272       .  A
C1123      O1126   1.267       .  A
C1123      C1360   1.482       .  S
Cd1124     O1131   2.402       .  S
Cd1124     O1130   2.432       .  S
Cd1124     O1129   2.421       .  S
Cd1124     O1125   2.512       .  S
Cd1124     O1128   2.499       .  S
Cd1124     O1126   2.427       .  S
C1127      O1131   1.263       .  A
C1127      C1383   1.478       .  S
O1132      C1135   1.272       .  A
O1132     Cd1137   2.526       .  S
C1133      O1142   1.268       .  A
C1133      O1138   1.273   1_565  A
C1133      C1350   1.484       .  S
O1134      C1140   1.273       .  A
O1134     Cd1137   2.510   1_565  S
C1135      O1143   1.264       .  A
C1135      C1393   1.482       .  S
C1136      O1141   1.271       .  A
C1136      O1139   1.266       .  A
C1136      C2633   1.483       .  S
Cd1137     O1144   2.393   1_545  S
Cd1137     O1143   2.387       .  S
Cd1137     O1142   2.416   1_545  S
Cd1137     O1138   2.496       .  S
Cd1137     O1141   2.509       .  S
Cd1137     O1139   2.421       .  S
C1140      O1144   1.265       .  A
C1140      C1373   1.478       .  S
O1145      C1148   1.273       .  A
O1145     Cd1150   2.492       .  S
C1146      O1155   1.266       .  A
C1146      O1151   1.273       .  A
C1146      C1340   1.482       .  S
O1147      C1153   1.274       .  A
O1147     Cd1150   2.509       .  S
C1148      O1156   1.269   1_545  A
C1148      C1320   1.485   1_545  S
C1149      O1154   1.275       .  A
C1149      O1152   1.265       .  A
C1149      C1330   1.485       .  S
Cd1150     O1157   2.425       .  S
Cd1150     O1156   2.426   1_545  S
Cd1150     O1155   2.405       .  S
Cd1150     O1151   2.506       .  S
Cd1150     O1154   2.523   1_545  S
Cd1150     O1152   2.397   1_545  S
C1153      O1157   1.267       .  A
C1153      C1543   1.485       .  S
O1158      C1161   1.272       .  A
O1158     Cd1163   2.502       .  S
C1159      O1168   1.264       .  A
C1159      O1164   1.273       .  A
C1159      C1310   1.478       .  S
O1160      C1166   1.271       .  A
O1160     Cd1163   2.505       .  S
C1161      O1169   1.265       .  A
C1161      C1523   1.481       .  S
C1162      O1167   1.271       .  A
C1162      O1165   1.267       .  A
C1162      C2073   1.480       .  S
Cd1163     O1170   2.399       .  S
Cd1163     O1169   2.411       .  S
Cd1163     O1168   2.380       .  S
Cd1163     O1164   2.522       .  S
Cd1163     O1167   2.490       .  S
Cd1163     O1165   2.424       .  S
C1166      O1170   1.264       .  A
C1166      C1343   1.476       .  S
O1171      C1174   1.273       .  A
O1171     Cd1176   2.520       .  S
C1172      O1181   1.267       .  A
C1172      O1177   1.272       .  A
C1172      C2723   1.485       .  S
O1173      C1179   1.273       .  A
O1173     Cd1176   2.497       .  S
C1174      O1182   1.265       .  A
C1174      C1333   1.478       .  S
C1175      O1180   1.272       .  A
C1175      O1178   1.265       .  A
C1175      C1300   1.485       .  S
Cd1176     O1183   2.433       .  S
Cd1176     O1182   2.403       .  S
Cd1176     O1181   2.433       .  S
Cd1176     O1177   2.496       .  S
Cd1176     O1180   2.522       .  S
Cd1176     O1178   2.411       .  S
C1179      O1183   1.267       .  A
C1179      C1290   1.484       .  S
O1184      C1187   1.275       .  A
O1184     Cd1189   2.523   1_565  S
C1185      O1194   1.268       .  A
C1185      O1190   1.274       .  A
C1185      C2053   1.489       .  S
O1186      C1192   1.274       .  A
O1186     Cd1189   2.512       .  S
C1187      O1195   1.266       .  A
C1187      C1303   1.486       .  S
C1188      O1193   1.274       .  A
C1188      O1191   1.268       .  A
C1188      C2690   1.482       .  S
Cd1189     O1196   2.392       .  S
Cd1189     O1195   2.407   1_545  S
Cd1189     O1194   2.428       .  S
Cd1189     O1190   2.509       .  S
Cd1189     O1193   2.498   1_545  S
Cd1189     O1191   2.409   1_545  S
C1192      O1196   1.267       .  A
C1192      C1313   1.483       .  S
O1197      C1200   1.273       .  A
O1197     Cd1202   2.490       .  S
C1198      O1207   1.266       .  A
C1198      O1203   1.273       .  A
C1198      C1280   1.483       .  S
O1199      C1205   1.273       .  A
O1199     Cd1202   2.518       .  S
C1200      O1208   1.268       .  A
C1200      C1293   1.484       .  S
C1201      O1206   1.275       .  A
C1201      O1204   1.267       .  A
C1201      C1270   1.484       .  S
Cd1202     O1209   2.413       .  S
Cd1202     O1208   2.424       .  S
Cd1202     O1207   2.405       .  S
Cd1202     O1203   2.519       .  S
Cd1202     O1206   2.515       .  S
Cd1202     O1204   2.397       .  S
C1205      O1209   1.266       .  A
C1205      C2863   1.484       .  S
O1210      C1213   1.271       .  A
O1210     Cd1215   2.521       .  S
C1211      O1220   1.264       .  A
C1211      O1216   1.270       .  A
C1211      C2843   1.483       .  S
O1212      C1218   1.270       .  A
O1212     Cd1215   2.507       .  S
C1213      O1221   1.264       .  A
C1213      C1260   1.479       .  S
C1214      O1219   1.267       .  A
C1214      O1217   1.261       .  A
C1214      C1283   1.480       .  S
Cd1215     O1222   2.421       .  S
Cd1215     O1221   2.403       .  S
Cd1215     O1220   2.418       .  S
Cd1215     O1216   2.520       .  S
Cd1215     O1219   2.529       .  S
Cd1215     O1217   2.427       .  S
C1218      O1222   1.265       .  A
C1218      C1353   1.482       .  S
O1223      C1226   1.271       .  A
O1223     Cd1228   2.510       .  S
C1224      O1233   1.263       .  A
C1224      O1229   1.271       .  A
C1224      C1273   1.479       .  S
O1225      C1231   1.271       .  A
O1225     Cd1228   2.540       .  S
C1226      O1234   1.266       .  A
C1226      C1823   1.485       .  S
C1227      O1232   1.271       .  A
C1227      O1230   1.266       .  A
C1227      C1323   1.482       .  S
Cd1228     O1235   2.402       .  S
Cd1228     O1234   2.432       .  S
Cd1228     O1233   2.402       .  S
Cd1228     O1229   2.525       .  S
Cd1228     O1232   2.503       .  S
Cd1228     O1230   2.441       .  S
C1231      O1235   1.262       .  A
C1231      C1250   1.482       .  S
O1236      C1239   1.272       .  A
O1236     Cd1241   2.519       .  S
C1237      O1246   1.268       .  A
C1237      O1242   1.273       .  A
C1237      C1363   1.484       .  S
O1238      C1244   1.273       .  A
O1238     Cd1241   2.521       .  S
C1239      O1247   1.265       .  A
C1239      C1253   1.483       .  S
C1240      O1245   1.272       .  A
C1240      O1243   1.266       .  A
C1240      C1793   1.482       .  S
Cd1241     O1248   2.384       .  S
Cd1241     O1247   2.396       .  S
Cd1241     O1246   2.415       .  S
Cd1241     O1242   2.496       .  S
Cd1241     O1245   2.504       .  S
Cd1241     O1243   2.417       .  S
C1244      O1248   1.265       .  A
C1244      C1263   1.480       .  S
C1249      C1250   1.408       .  A
C1249      C1254   1.409       .  A
C1249      H1255   1.083       .  S
C1250      C1251   1.403       .  A
C1251      C1252   1.389       .  A
C1251      H1256   1.083       .  S
C1252      C1253   1.404       .  A
C1252      H1257   1.083       .  S
C1253      C1254   1.409       .  A
C1254      H1258   1.083       .  S
C1259      C1260   1.402       .  A
C1259      C1264   1.390       .  A
C1259      H1265   1.084       .  S
C1260      C1261   1.408       .  A
C1261      C1262   1.408       .  A
C1261      H1266   1.083       .  S
C1262      C1263   1.407       .  A
C1262      H1267   1.083       .  S
C1263      C1264   1.404       .  A
C1264      H1268   1.083       .  S
C1269      C1270   1.405       .  A
C1269      C1274   1.392       .  A
C1269      H1275   1.083       .  S
C1270      C1271   1.408       .  A
C1271      C1272   1.408       .  A
C1271      H1276   1.083       .  S
C1272      C1273   1.407       .  A
C1272      H1277   1.083       .  S
C1273      C1274   1.402       .  A
C1274      H1278   1.084       .  S
C1279      C1280   1.404       .  A
C1279      C1284   1.392       .  A
C1279      H1285   1.084       .  S
C1280      C1281   1.407       .  A
C1281      C1282   1.408       .  A
C1281      H1286   1.082       .  S
C1282      C1283   1.408       .  A
C1282      H1287   1.084       .  S
C1283      C1284   1.403       .  A
C1284      H1288   1.083       .  S
C1289      C1290   1.405       .  A
C1289      C1294   1.396       .  A
C1289      H1295   1.083       .  S
C1290      C1291   1.406       .  A
C1291      C1292   1.405       .  A
C1291      H1296   1.083       .  S
C1292      C1293   1.407       .  A
C1292      H1297   1.082       .  S
C1293      C1294   1.406       .  A
C1294      H1298   1.084       .  S
C1299      C1300   1.404       .  A
C1299      C1304   1.392       .  A
C1299      H1305   1.083       .  S
C1300      C1301   1.408       .  A
C1301      C1302   1.410       .  A
C1301      H1306   1.083       .  S
C1302      C1303   1.408       .  A
C1302      H1307   1.083       .  S
C1303      C1304   1.405       .  A
C1304      H1308   1.083       .  S
C1309      C1310   1.407       .  A
C1309      C1314   1.408       .  A
C1309      H1315   1.083       .  S
C1310      C1311   1.402       .  A
C1311      C1312   1.389       .  A
C1311      H1316   1.084       .  S
C1312      C1313   1.404       .  A
C1312      H1317   1.083       .  S
C1313      C1314   1.408       .  A
C1314      H1318   1.083       .  S
C1319      C1320   1.406       .  A
C1319      C1324   1.397       .  A
C1319      H1325   1.084       .  S
C1320      C1321   1.407       .  A
C1321      C1322   1.405       .  A
C1321      H1326   1.082       .  S
C1322      C1323   1.407       .  A
C1322      H1327   1.084       .  S
C1323      C1324   1.404       .  A
C1324      H1328   1.082       .  S
C1329      C1330   1.408       .  A
C1329      C1334   1.409       .  A
C1329      H1335   1.083       .  S
C1330      C1331   1.406       .  A
C1331      C1332   1.392       .  A
C1331      H1336   1.083       .  S
C1332      C1333   1.402       .  A
C1332      H1337   1.084       .  S
C1333      C1334   1.406       .  A
C1334      H1338   1.083       .  S
C1339      C1340   1.405       .  A
C1339      C1344   1.391       .  A
C1339      H1345   1.083       .  S
C1340      C1341   1.407       .  A
C1341      C1342   1.406       .  A
C1341      H1346   1.083       .  S
C1342      C1343   1.406       .  A
C1342      H1347   1.083       .  S
C1343      C1344   1.402       .  A
C1344      H1348   1.084       .  S
C1349      C1350   1.404       .  A
C1349      C1354   1.394       .  A
C1349      H1355   1.085       .  S
C1350      C1351   1.408       .  A
C1351      C1352   1.406       .  A
C1351      H1356   1.081       .  S
C1352      C1353   1.407       .  A
C1352      H1357   1.084       .  S
C1353      C1354   1.404       .  A
C1354      H1358   1.082       .  S
C1359      C1360   1.404       .  A
C1359      C1364   1.394       .  A
C1359      H1365   1.084       .  S
C1360      C1361   1.407       .  A
C1361      C1362   1.406       .  A
C1361      H1366   1.082       .  S
C1362      C1363   1.407       .  A
C1362      H1367   1.083       .  S
C1363      C1364   1.405       .  A
C1364      H1368   1.083       .  S
C1369      C1370   1.407       .  A
C1369      C1374   1.406       .  A
C1369      H1375   1.083       .  S
C1370      C1371   1.402       .  A
C1371      C1372   1.392       .  A
C1371      H1376   1.084       .  S
C1372      C1373   1.404       .  A
C1372      H1377   1.083       .  S
C1373      C1374   1.406       .  A
C1374      H1378   1.083       .  S
C1379      C1380   1.405       .  A
C1379      C1384   1.390       .  A
C1379      H1385   1.084       .  S
C1380      C1381   1.409       .  A
C1381      C1382   1.409       .  A
C1381      H1386   1.082       .  S
C1382      C1383   1.407       .  A
C1382      H1387   1.084       .  S
C1383      C1384   1.402       .  A
C1384      H1388   1.083       .  S
C1389      C1390   1.402       .  A
C1389      C1394   1.388       .  A
C1389      H1395   1.083       .  S
C1390      C1391   1.408       .  A
C1391      C1392   1.409       .  A
C1391      H1396   1.083       .  S
C1392      C1393   1.408       .  A
C1392      H1397   1.083       .  S
C1393      C1394   1.404       .  A
C1394      H1398   1.083       .  S
C1399      C1400   1.407       .  A
C1399      C1404   1.408       .  A
C1399      H1405   1.083       .  S
C1400      C1401   1.402       .  A
C1401      C1402   1.390       .  A
C1401      H1406   1.084       .  S
C1402      C1403   1.404       .  A
C1402      H1407   1.083       .  S
C1403      C1404   1.408       .  A
C1404      H1408   1.083       .  S
C1409      C1410   1.404       .  A
C1409      C1414   1.395       .  A
C1409      H1415   1.083       .  S
C1410      C1411   1.405       .  A
C1411      C1412   1.404       .  A
C1411      H1416   1.083       .  S
C1412      C1413   1.408       .  A
C1412      H1417   1.083       .  S
C1413      C1414   1.405       .  A
C1414      H1418   1.083       .  S
C1419      C1420   1.404       .  A
C1419      C1424   1.399       .  A
C1419      H1425   1.083       .  S
C1420      C1421   1.408       .  A
C1421      C1422   1.402       .  A
C1421      H1426   1.083       .  S
C1422      C1423   1.403       .  A
C1422      H1427   1.083       .  S
C1423      C1424   1.405       .  A
C1424      H1428   1.083       .  S
C1429      C1430   1.405       .  A
C1429      C1434   1.404       .  A
C1429      H1435   1.083       .  S
C1430      C1431   1.404       .  A
C1431      C1432   1.396       .  A
C1431      H1436   1.083       .  S
C1432      C1433   1.404       .  A
C1432      H1437   1.083       .  S
C1433      C1434   1.408       .  A
C1434      H1438   1.083       .  S
C1439      C1440   1.405       .  A
C1439      C1444   1.398       .  A
C1439      H1445   1.083       .  S
C1440      C1441   1.404       .  A
C1441      C1442   1.402       .  A
C1441      H1446   1.083       .  S
C1442      C1443   1.407       .  A
C1442      H1447   1.083       .  S
C1443      C1444   1.405       .  A
C1444      H1448   1.083       .  S
C1449      C1450   1.407       .  A
C1449      C1454   1.406       .  A
C1449      H1455   1.084       .  S
C1450      C1451   1.404       .  A
C1451      C1452   1.397       .  A
C1451      H1456   1.082       .  S
C1452      C1453   1.405       .  A
C1452      H1457   1.084       .  S
C1453      C1454   1.407       .  A
C1454      H1458   1.082       .  S
C1459      C1460   1.408       .  A
C1459      C1464   1.410       .  A
C1459      H1465   1.083       .  S
C1460      C1461   1.404       .  A
C1461      C1462   1.390       .  A
C1461      H1466   1.083       .  S
C1462      C1463   1.404       .  A
C1462      H1467   1.084       .  S
C1463      C1464   1.409       .  A
C1464      H1468   1.082       .  S
C1469      C1470   1.407       .  A
C1469      C1474   1.410       .  A
C1469      H1475   1.083       .  S
C1470      C1471   1.402       .  A
C1471      C1472   1.391       .  A
C1471      H1476   1.084       .  S
C1472      C1473   1.405       .  A
C1472      H1477   1.083       .  S
C1473      C1474   1.409       .  A
C1474      H1478   1.083       .  S
C1479      C1480   1.406       .  A
C1479      C1484   1.404       .  A
C1479      H1485   1.084       .  S
C1480      C1481   1.406       .  A
C1481      C1482   1.398       .  A
C1481      H1486   1.082       .  S
C1482      C1483   1.406       .  A
C1482      H1487   1.084       .  S
C1483      C1484   1.406       .  A
C1484      H1488   1.082       .  S
C1489      C1490   1.405       .  A
C1489      C1494   1.390       .  A
C1489      H1495   1.083       .  S
C1490      C1491   1.408       .  A
C1491      C1492   1.409       .  A
C1491      H1496   1.083       .  S
C1492      C1493   1.407       .  A
C1492      H1497   1.083       .  S
C1493      C1494   1.401       .  A
C1494      H1498   1.084       .  S
C1499      C1500   1.409       .  A
C1499      C1504   1.412       .  A
C1499      H1505   1.083       .  S
C1500      C1501   1.404       .  A
C1501      C1502   1.390       .  A
C1501      H1506   1.083       .  S
C1502      C1503   1.404       .  A
C1502      H1507   1.083       .  S
C1503      C1504   1.409       .  A
C1504      H1508   1.083       .  S
C1509      C1510   1.407       .  A
C1509      C1514   1.406       .  A
C1509      H1515   1.083       .  S
C1510      C1511   1.405       .  A
C1511      C1512   1.394       .  A
C1511      H1516   1.083       .  S
C1512      C1513   1.404       .  A
C1512      H1517   1.083       .  S
C1513      C1514   1.407       .  A
C1514      H1518   1.083       .  S
C1519      C1520   1.406       .  A
C1519      C1524   1.405       .  A
C1519      H1525   1.083       .  S
C1520      C1521   1.403       .  A
C1521      C1522   1.393       .  A
C1521      H1526   1.083       .  S
C1522      C1523   1.405       .  A
C1522      H1527   1.084       .  S
C1523      C1524   1.407       .  A
C1524      H1528   1.082       .  S
C1529      C1530   1.404       .  A
C1529      C1534   1.391       .  A
C1529      H1535   1.083       .  S
C1530      C1531   1.408       .  A
C1531      C1532   1.407       .  A
C1531      H1536   1.083       .  S
C1532      C1533   1.406       .  A
C1532      H1537   1.083       .  S
C1533      C1534   1.401       .  A
C1534      H1538   1.084       .  S
C1539      C1540   1.405       .  A
C1539      C1544   1.395       .  A
C1539      H1545   1.083       .  S
C1540      C1541   1.407       .  A
C1541      C1542   1.407       .  A
C1541      H1546   1.083       .  S
C1542      C1543   1.407       .  A
C1542      H1547   1.082       .  S
C1543      C1544   1.405       .  A
C1544      H1548   1.083       .  S
C1549      C1550   1.407       .  A
C1549      C1554   1.407       .  A
C1549      H1555   1.083       .  S
C1550      C1551   1.402       .  A
C1551      C1552   1.390       .  A
C1551      H1556   1.083       .  S
C1552      C1553   1.405       .  A
C1552      H1557   1.083       .  S
C1553      C1554   1.407       .  A
C1554      H1558   1.083       .  S
C1559      C1560   1.404       .  A
C1559      C1564   1.394       .  A
C1559      H1565   1.082       .  S
C1560      C1561   1.407       .  A
C1561      C1562   1.408       .  A
C1561      H1566   1.084       .  S
C1562      C1563   1.409       .  A
C1562      H1567   1.081       .  S
C1563      C1564   1.404       .  A
C1564      H1568   1.084       .  S
C1569      C1570   1.403       .  A
C1569      C1574   1.392       .  A
C1569      H1575   1.084       .  S
C1570      C1571   1.406       .  A
C1571      C1572   1.406       .  A
C1571      H1576   1.083       .  S
C1572      C1573   1.407       .  A
C1572      H1577   1.083       .  S
C1573      C1574   1.405       .  A
C1574      H1578   1.083       .  S
C1579      C1580   1.408       .  A
C1579      C1584   1.410       .  A
C1579      H1585   1.082       .  S
C1580      C1581   1.405       .  A
C1581      C1582   1.391       .  A
C1581      H1586   1.083       .  S
C1582      C1583   1.402       .  A
C1582      H1587   1.083       .  S
C1583      C1584   1.408       .  A
C1584      H1588   1.083       .  S
C1589      C1590   1.408       .  A
C1589      C1594   1.408       .  A
C1589      H1595   1.083       .  S
C1590      C1591   1.403       .  A
C1591      C1592   1.393       .  A
C1591      H1596   1.083       .  S
C1592      C1593   1.405       .  A
C1592      H1597   1.083       .  S
C1593      C1594   1.407       .  A
C1594      H1598   1.083       .  S
C1599      C1600   1.407       .  A
C1599      C1604   1.407       .  A
C1599      H1605   1.083       .  S
C1600      C1601   1.402       .  A
C1601      C1602   1.392       .  A
C1601      H1606   1.084       .  S
C1602      C1603   1.404       .  A
C1602      H1607   1.083       .  S
C1603      C1604   1.407       .  A
C1604      H1608   1.083       .  S
C1609      C1610   1.405       .  A
C1609      C1614   1.405       .  A
C1609      H1615   1.083       .  S
C1610      C1611   1.404       .  A
C1611      C1612   1.394       .  A
C1611      H1616   1.083       .  S
C1612      C1613   1.404       .  A
C1612      H1617   1.084       .  S
C1613      C1614   1.408       .  A
C1614      H1618   1.083       .  S
C1619      C1620   1.407       .  A
C1619      C1624   1.406       .  A
C1619      H1625   1.083       .  S
C1620      C1621   1.404       .  A
C1621      C1622   1.392       .  A
C1621      H1626   1.084       .  S
C1622      C1623   1.402       .  A
C1622      H1627   1.083       .  S
C1623      C1624   1.406       .  A
C1624      H1628   1.083       .  S
C1629      C1630   1.403       .  A
C1629      C1634   1.393       .  A
C1629      H1635   1.083       .  S
C1630      C1631   1.406       .  A
C1631      C1632   1.404       .  A
C1631      H1636   1.084       .  S
C1632      C1633   1.407       .  A
C1632      H1637   1.082       .  S
C1633      C1634   1.405       .  A
C1634      H1638   1.083       .  S
C1639      C1640   1.408       .  A
C1639      C1644   1.410       .  A
C1639      H1645   1.082       .  S
C1640      C1641   1.401       .  A
C1641      C1642   1.388       .  A
C1641      H1646   1.084       .  S
C1642      C1643   1.404       .  A
C1642      H1647   1.083       .  S
C1643      C1644   1.408       .  A
C1644      H1648   1.083       .  S
C1649      C1650   1.406       .  A
C1649      C1654   1.408       .  A
C1649      H1655   1.083       .  S
C1650      C1651   1.403       .  A
C1651      C1652   1.391       .  A
C1651      H1656   1.084       .  S
C1652      C1653   1.404       .  A
C1652      H1657   1.083       .  S
C1653      C1654   1.408       .  A
C1654      H1658   1.083       .  S
C1659      C1660   1.405       .  A
C1659      C1664   1.395       .  A
C1659      H1665   1.082       .  S
C1660      C1661   1.407       .  A
C1661      C1662   1.406       .  A
C1661      H1666   1.084       .  S
C1662      C1663   1.408       .  A
C1662      H1667   1.082       .  S
C1663      C1664   1.404       .  A
C1664      H1668   1.084       .  S
C1669      C1670   1.404       .  A
C1669      C1674   1.391       .  A
C1669      H1675   1.083       .  S
C1670      C1671   1.408       .  A
C1671      C1672   1.407       .  A
C1671      H1676   1.083       .  S
C1672      C1673   1.406       .  A
C1672      H1677   1.083       .  S
C1673      C1674   1.402       .  A
C1674      H1678   1.084       .  S
C1679      C1680   1.407       .  A
C1679      C1684   1.408       .  A
C1679      H1685   1.083       .  S
C1680      C1681   1.406       .  A
C1681      C1682   1.394       .  A
C1681      H1686   1.083       .  S
C1682      C1683   1.404       .  A
C1682      H1687   1.083       .  S
C1683      C1684   1.408       .  A
C1684      H1688   1.083       .  S
C1689      C1690   1.403       .  A
C1689      C1694   1.394       .  A
C1689      H1695   1.083       .  S
C1690      C1691   1.408       .  A
C1691      C1692   1.408       .  A
C1691      H1696   1.083       .  S
C1692      C1693   1.408       .  A
C1692      H1697   1.083       .  S
C1693      C1694   1.405       .  A
C1694      H1698   1.083       .  S
C1699      C1700   1.404       .  A
C1699      C1704   1.392       .  A
C1699      H1705   1.083       .  S
C1700      C1701   1.408       .  A
C1701      C1702   1.409       .  A
C1701      H1706   1.083       .  S
C1702      C1703   1.407       .  A
C1702      H1707   1.083       .  S
C1703      C1704   1.402       .  A
C1704      H1708   1.084       .  S
C1709      C1710   1.404       .  A
C1709      C1714   1.394       .  A
C1709      H1715   1.083       .  S
C1710      C1711   1.408       .  A
C1711      C1712   1.407       .  A
C1711      H1716   1.083       .  S
C1712      C1713   1.407       .  A
C1712      H1717   1.083       .  S
C1713      C1714   1.405       .  A
C1714      H1718   1.083       .  S
C1719      C1720   1.406       .  A
C1719      C1724   1.405       .  A
C1719      H1725   1.085       .  S
C1720      C1721   1.404       .  A
C1721      C1722   1.395       .  A
C1721      H1726   1.082       .  S
C1722      C1723   1.406       .  A
C1722      H1727   1.085       .  S
C1723      C1724   1.407       .  A
C1724      H1728   1.081       .  S
C1729      C1730   1.403       .  A
C1729      C1734   1.391       .  A
C1729      H1735   1.083       .  S
C1730      C1731   1.407       .  A
C1731      C1732   1.408       .  A
C1731      H1736   1.083       .  S
C1732      C1733   1.408       .  A
C1732      H1737   1.083       .  S
C1733      C1734   1.405       .  A
C1734      H1738   1.083       .  S
C1739      C1740   1.408       .  A
C1739      C1744   1.409       .  A
C1739      H1745   1.082       .  S
C1740      C1741   1.406       .  A
C1741      C1742   1.396       .  A
C1741      H1746   1.084       .  S
C1742      C1743   1.405       .  A
C1742      H1747   1.082       .  S
C1743      C1744   1.408       .  A
C1744      H1748   1.083       .  S
C1749      C1750   1.406       .  A
C1749      C1754   1.393       .  A
C1749      H1755   1.083       .  S
C1750      C1751   1.408       .  A
C1751      C1752   1.408       .  A
C1751      H1756   1.083       .  S
C1752      C1753   1.406       .  A
C1752      H1757   1.083       .  S
C1753      C1754   1.402       .  A
C1754      H1758   1.084       .  S
C1759      C1760   1.405       .  A
C1759      C1764   1.390       .  A
C1759      H1765   1.083       .  S
C1760      C1761   1.409       .  A
C1761      C1762   1.411       .  A
C1761      H1766   1.083       .  S
C1762      C1763   1.409       .  A
C1762      H1767   1.083       .  S
C1763      C1764   1.402       .  A
C1764      H1768   1.083       .  S
C1769      C1770   1.408       .  A
C1769      C1774   1.405       .  A
C1769      H1775   1.082       .  S
C1770      C1771   1.405       .  A
C1771      C1772   1.395       .  A
C1771      H1776   1.084       .  S
C1772      C1773   1.404       .  A
C1772      H1777   1.083       .  S
C1773      C1774   1.406       .  A
C1774      H1778   1.084       .  S
C1779      C1780   1.408       .  A
C1779      C1784   1.407       .  A
C1779      H1785   1.083       .  S
C1780      C1781   1.403       .  A
C1781      C1782   1.391       .  A
C1781      H1786   1.083       .  S
C1782      C1783   1.404       .  A
C1782      H1787   1.083       .  S
C1783      C1784   1.407       .  A
C1784      H1788   1.083       .  S
C1789      C1790   1.408       .  A
C1789      C1794   1.407       .  A
C1789      H1795   1.083       .  S
C1790      C1791   1.405       .  A
C1791      C1792   1.393       .  A
C1791      H1796   1.083       .  S
C1792      C1793   1.404       .  A
C1792      H1797   1.084       .  S
C1793      C1794   1.407       .  A
C1794      H1798   1.082       .  S
C1799      C1800   1.405       .  A
C1799      C1804   1.396       .  A
C1799      H1805   1.082       .  S
C1800      C1801   1.407       .  A
C1801      C1802   1.407       .  A
C1801      H1806   1.084       .  S
C1802      C1803   1.408       .  A
C1802      H1807   1.082       .  S
C1803      C1804   1.405       .  A
C1804      H1808   1.084       .  S
C1809      C1810   1.406       .  A
C1809      C1814   1.407       .  A
C1809      H1815   1.083       .  S
C1810      C1811   1.401       .  A
C1811      C1812   1.391       .  A
C1811      H1816   1.084       .  S
C1812      C1813   1.405       .  A
C1812      H1817   1.083       .  S
C1813      C1814   1.408       .  A
C1814      H1818   1.083       .  S
C1819      C1820   1.404       .  A
C1819      C1824   1.393       .  A
C1819      H1825   1.083       .  S
C1820      C1821   1.407       .  A
C1821      C1822   1.407       .  A
C1821      H1826   1.083       .  S
C1822      C1823   1.408       .  A
C1822      H1827   1.083       .  S
C1823      C1824   1.404       .  A
C1824      H1828   1.083       .  S
C1829      C1830   1.405       .  A
C1829      C1834   1.390       .  A
C1829      H1835   1.083       .  S
C1830      C1831   1.407       .  A
C1831      C1832   1.408       .  A
C1831      H1836   1.083       .  S
C1832      C1833   1.407       .  A
C1832      H1837   1.082       .  S
C1833      C1834   1.402       .  A
C1834      H1838   1.084       .  S
C1839      C1840   1.408       .  A
C1839      C1844   1.408       .  A
C1839      H1845   1.081       .  S
C1840      C1841   1.404       .  A
C1841      C1842   1.393       .  A
C1841      H1846   1.085       .  S
C1842      C1843   1.405       .  A
C1842      H1847   1.081       .  S
C1843      C1844   1.407       .  A
C1844      H1848   1.085       .  S
C1849      C1850   1.408       .  A
C1849      C1854   1.408       .  A
C1849      H1855   1.082       .  S
C1850      C1851   1.403       .  A
C1851      C1852   1.390       .  A
C1851      H1856   1.084       .  S
C1852      C1853   1.405       .  A
C1852      H1857   1.083       .  S
C1853      C1854   1.407       .  A
C1854      H1858   1.083       .  S
C1859      C1860   1.405       .  A
C1859      C1864   1.406       .  A
C1859      H1865   1.083       .  S
C1860      C1861   1.402       .  A
C1861      C1862   1.391       .  A
C1861      H1866   1.084       .  S
C1862      C1863   1.405       .  A
C1862      H1867   1.083       .  S
C1863      C1864   1.407       .  A
C1864      H1868   1.083       .  S
C1869      C1870   1.402       .  A
C1869      C1874   1.390       .  A
C1869      H1875   1.084       .  S
C1870      C1871   1.407       .  A
C1871      C1872   1.408       .  A
C1871      H1876   1.083       .  S
C1872      C1873   1.408       .  A
C1872      H1877   1.083       .  S
C1873      C1874   1.405       .  A
C1874      H1878   1.083       .  S
C1879      C1880   1.403       .  A
C1879      C1884   1.394       .  A
C1879      H1885   1.084       .  S
C1880      C1881   1.406       .  A
C1881      C1882   1.406       .  A
C1881      H1886   1.083       .  S
C1882      C1883   1.407       .  A
C1882      H1887   1.083       .  S
C1883      C1884   1.405       .  A
C1884      H1888   1.083       .  S
C1889      C1890   1.408       .  A
C1889      C1894   1.411       .  A
C1889      H1895   1.083       .  S
C1890      C1891   1.405       .  A
C1891      C1892   1.390       .  A
C1891      H1896   1.083       .  S
C1892      C1893   1.402       .  A
C1892      H1897   1.083       .  S
C1893      C1894   1.409       .  A
C1894      H1898   1.083       .  S
C1899      C1900   1.409       .  A
C1899      C1904   1.410       .  A
C1899      H1905   1.083       .  S
C1900      C1901   1.404       .  A
C1901      C1902   1.390       .  A
C1901      H1906   1.083       .  S
C1902      C1903   1.403       .  A
C1902      H1907   1.083       .  S
C1903      C1904   1.408       .  A
C1904      H1908   1.083       .  S
C1909      C1910   1.405       .  A
C1909      C1914   1.393       .  A
C1909      H1915   1.084       .  S
C1910      C1911   1.407       .  A
C1911      C1912   1.405       .  A
C1911      H1916   1.082       .  S
C1912      C1913   1.406       .  A
C1912      H1917   1.083       .  S
C1913      C1914   1.403       .  A
C1914      H1918   1.083       .  S
C1919      C1920   1.408       .  A
C1919      C1924   1.409       .  A
C1919      H1925   1.085       .  S
C1920      C1921   1.402       .  A
C1921      C1922   1.392       .  A
C1921      H1926   1.082       .  S
C1922      C1923   1.404       .  A
C1922      H1927   1.084       .  S
C1923      C1924   1.409       .  A
C1924      H1928   1.081       .  S
C1929      C1930   1.406       .  A
C1929      C1934   1.405       .  A
C1929      H1935   1.084       .  S
C1930      C1931   1.405       .  A
C1931      C1932   1.395       .  A
C1931      H1936   1.082       .  S
C1932      C1933   1.405       .  A
C1932      H1937   1.085       .  S
C1933      C1934   1.407       .  A
C1934      H1938   1.081       .  S
C1939      C1940   1.405       .  A
C1939      C1944   1.392       .  A
C1939      H1945   1.083       .  S
C1940      C1941   1.407       .  A
C1941      C1942   1.407       .  A
C1941      H1946   1.083       .  S
C1942      C1943   1.406       .  A
C1942      H1947   1.083       .  S
C1943      C1944   1.401       .  A
C1944      H1948   1.084       .  S
C1949      C1950   1.408       .  A
C1949      C1954   1.407       .  A
C1949      H1955   1.082       .  S
C1950      C1951   1.405       .  A
C1951      C1952   1.393       .  A
C1951      H1956   1.084       .  S
C1952      C1953   1.404       .  A
C1952      H1957   1.083       .  S
C1953      C1954   1.407       .  A
C1954      H1958   1.084       .  S
C1959      C1960   1.407       .  A
C1959      C1964   1.408       .  A
C1959      H1965   1.084       .  S
C1960      C1961   1.402       .  A
C1961      C1962   1.387       .  A
C1961      H1966   1.083       .  S
C1962      C1963   1.404       .  A
C1962      H1967   1.084       .  S
C1963      C1964   1.408       .  A
C1964      H1968   1.082       .  S
C1969      C1970   1.404       .  A
C1969      C1974   1.390       .  A
C1969      H1975   1.083       .  S
C1970      C1971   1.408       .  A
C1971      C1972   1.407       .  A
C1971      H1976   1.083       .  S
C1972      C1973   1.406       .  A
C1972      H1977   1.083       .  S
C1973      C1974   1.403       .  A
C1974      H1978   1.083       .  S
C1979      C1980   1.408       .  A
C1979      C1984   1.410       .  A
C1979      H1985   1.083       .  S
C1980      C1981   1.402       .  A
C1981      C1982   1.388       .  A
C1981      H1986   1.083       .  S
C1982      C1983   1.404       .  A
C1982      H1987   1.083       .  S
C1983      C1984   1.408       .  A
C1984      H1988   1.083       .  S
C1989      C1990   1.403       .  A
C1989      C1994   1.390       .  A
C1989      H1995   1.083       .  S
C1990      C1991   1.408       .  A
C1991      C1992   1.406       .  A
C1991      H1996   1.083       .  S
C1992      C1993   1.407       .  A
C1992      H1997   1.083       .  S
C1993      C1994   1.402       .  A
C1994      H1998   1.083       .  S
C1999      C2000   1.406       .  A
C1999      C2004   1.396       .  A
C1999      H2005   1.084       .  S
C2000      C2001   1.407       .  A
C2001      C2002   1.406       .  A
C2001      H2006   1.082       .  S
C2002      C2003   1.407       .  A
C2002      H2007   1.084       .  S
C2003      C2004   1.405       .  A
C2004      H2008   1.082       .  S
C2009      C2010   1.407       .  A
C2009      C2014   1.405       .  A
C2009      H2015   1.083       .  S
C2010      C2011   1.406       .  A
C2011      C2012   1.395       .  A
C2011      H2016   1.083       .  S
C2012      C2013   1.404       .  A
C2012      H2017   1.084       .  S
C2013      C2014   1.407       .  A
C2014      H2018   1.082       .  S
C2019      C2020   1.402       .  A
C2019      C2024   1.391       .  A
C2019      H2025   1.082       .  S
C2020      C2021   1.408       .  A
C2021      C2022   1.409       .  A
C2021      H2026   1.084       .  S
C2022      C2023   1.409       .  A
C2022      H2027   1.082       .  S
C2023      C2024   1.404       .  A
C2024      H2028   1.084       .  S
C2029      C2030   1.404       .  A
C2029      C2034   1.390       .  A
C2029      H2035   1.083       .  S
C2030      C2031   1.406       .  A
C2031      C2032   1.405       .  A
C2031      H2036   1.083       .  S
C2032      C2033   1.406       .  A
C2032      H2037   1.083       .  S
C2033      C2034   1.401       .  A
C2034      H2038   1.084       .  S
C2039      C2040   1.409       .  A
C2039      C2044   1.410       .  A
C2039      H2045   1.083       .  S
C2040      C2041   1.403       .  A
C2041      C2042   1.392       .  A
C2041      H2046   1.082       .  S
C2042      C2043   1.404       .  A
C2042      H2047   1.084       .  S
C2043      C2044   1.409       .  A
C2044      H2048   1.082       .  S
C2049      C2050   1.405       .  A
C2049      C2054   1.396       .  A
C2049      H2055   1.082       .  S
C2050      C2051   1.408       .  A
C2051      C2052   1.409       .  A
C2051      H2056   1.084       .  S
C2052      C2053   1.408       .  A
C2052      H2057   1.081       .  S
C2053      C2054   1.406       .  A
C2054      H2058   1.084       .  S
C2059      C2060   1.407       .  A
C2059      C2064   1.409       .  A
C2059      H2065   1.082       .  S
C2060      C2061   1.403       .  A
C2061      C2062   1.393       .  A
C2061      H2066   1.084       .  S
C2062      C2063   1.406       .  A
C2062      H2067   1.083       .  S
C2063      C2064   1.408       .  A
C2064      H2068   1.083       .  S
C2069      C2070   1.405       .  A
C2069      C2074   1.394       .  A
C2069      H2075   1.084       .  S
C2070      C2071   1.406       .  A
C2071      C2072   1.404       .  A
C2071      H2076   1.082       .  S
C2072      C2073   1.407       .  A
C2072      H2077   1.084       .  S
C2073      C2074   1.403       .  A
C2074      H2078   1.082       .  S
C2079      C2080   1.406       .  A
C2079      C2084   1.406       .  A
C2079      H2085   1.082       .  S
C2080      C2081   1.404       .  A
C2081      C2082   1.396       .  A
C2081      H2086   1.084       .  S
C2082      C2083   1.406       .  A
C2082      H2087   1.082       .  S
C2083      C2084   1.407       .  A
C2084      H2088   1.084       .  S
C2089      C2090   1.405       .  A
C2089      C2094   1.393       .  A
C2089      H2095   1.083       .  S
C2090      C2091   1.407       .  A
C2091      C2092   1.407       .  A
C2091      H2096   1.083       .  S
C2092      C2093   1.406       .  A
C2092      H2097   1.083       .  S
C2093      C2094   1.403       .  A
C2094      H2098   1.084       .  S
C2099      C2100   1.409       .  A
C2099      C2104   1.410       .  A
C2099      H2105   1.083       .  S
C2100      C2101   1.404       .  A
C2101      C2102   1.389       .  A
C2101      H2106   1.083       .  S
C2102      C2103   1.402       .  A
C2102      H2107   1.083       .  S
C2103      C2104   1.408       .  A
C2104      H2108   1.083       .  S
C2109      C2110   1.407       .  A
C2109      C2114   1.408       .  A
C2109      H2115   1.083       .  S
C2110      C2111   1.404       .  A
C2111      C2112   1.394       .  A
C2111      H2116   1.084       .  S
C2112      C2113   1.404       .  A
C2112      H2117   1.083       .  S
C2113      C2114   1.409       .  A
C2114      H2118   1.083       .  S
C2119      C2120   1.404       .  A
C2119      C2124   1.392       .  A
C2119      H2125   1.083       .  S
C2120      C2121   1.409       .  A
C2121      C2122   1.408       .  A
C2121      H2126   1.083       .  S
C2122      C2123   1.407       .  A
C2122      H2127   1.083       .  S
C2123      C2124   1.402       .  A
C2124      H2128   1.083       .  S
C2129      C2130   1.406       .  A
C2129      C2134   1.401       .  A
C2129      H2135   1.083       .  S
C2130      C2131   1.404       .  A
C2131      C2132   1.398       .  A
C2131      H2136   1.083       .  S
C2132      C2133   1.405       .  A
C2132      H2137   1.083       .  S
C2133      C2134   1.404       .  A
C2134      H2138   1.083       .  S
C2139      C2140   1.405       .  A
C2139      C2144   1.398       .  A
C2139      H2145   1.083       .  S
C2140      C2141   1.408       .  A
C2141      C2142   1.406       .  A
C2141      H2146   1.083       .  S
C2142      C2143   1.406       .  A
C2142      H2147   1.083       .  S
C2143      C2144   1.405       .  A
C2144      H2148   1.083       .  S
C2149      C2150   1.405       .  A
C2149      C2154   1.404       .  A
C2149      H2155   1.083       .  S
C2150      C2151   1.404       .  A
C2151      C2152   1.396       .  A
C2151      H2156   1.083       .  S
C2152      C2153   1.405       .  A
C2152      H2157   1.083       .  S
C2153      C2154   1.408       .  A
C2154      H2158   1.083       .  S
C2159      C2160   1.405       .  A
C2159      C2164   1.403       .  A
C2159      H2165   1.083       .  S
C2160      C2161   1.405       .  A
C2161      C2162   1.396       .  A
C2161      H2166   1.083       .  S
C2162      C2163   1.404       .  A
C2162      H2167   1.083       .  S
C2163      C2164   1.407       .  A
C2164      H2168   1.083       .  S
C2169      C2170   1.406       .  A
C2169      C2174   1.405       .  A
C2169      H2175   1.084       .  S
C2170      C2171   1.404       .  A
C2171      C2172   1.396       .  A
C2171      H2176   1.082       .  S
C2172      C2173   1.406       .  A
C2172      H2177   1.084       .  S
C2173      C2174   1.407       .  A
C2174      H2178   1.082       .  S
C2179      C2180   1.404       .  A
C2179      C2184   1.391       .  A
C2179      H2185   1.084       .  S
C2180      C2181   1.409       .  A
C2181      C2182   1.410       .  A
C2181      H2186   1.082       .  S
C2182      C2183   1.407       .  A
C2182      H2187   1.083       .  S
C2183      C2184   1.404       .  A
C2184      H2188   1.083       .  S
C2189      C2190   1.403       .  A
C2189      C2194   1.390       .  A
C2189      H2195   1.083       .  S
C2190      C2191   1.406       .  A
C2191      C2192   1.408       .  A
C2191      H2196   1.083       .  S
C2192      C2193   1.408       .  A
C2192      H2197   1.082       .  S
C2193      C2194   1.404       .  A
C2194      H2198   1.083       .  S
C2199      C2200   1.405       .  A
C2199      C2204   1.393       .  A
C2199      H2205   1.083       .  S
C2200      C2201   1.407       .  A
C2201      C2202   1.406       .  A
C2201      H2206   1.083       .  S
C2202      C2203   1.407       .  A
C2202      H2207   1.083       .  S
C2203      C2204   1.403       .  A
C2204      H2208   1.083       .  S
C2209      C2210   1.405       .  A
C2209      C2214   1.393       .  A
C2209      H2215   1.083       .  S
C2210      C2211   1.409       .  A
C2211      C2212   1.409       .  A
C2211      H2216   1.083       .  S
C2212      C2213   1.406       .  A
C2212      H2217   1.083       .  S
C2213      C2214   1.402       .  A
C2214      H2218   1.084       .  S
C2219      C2220   1.405       .  A
C2219      C2224   1.390       .  A
C2219      H2225   1.083       .  S
C2220      C2221   1.408       .  A
C2221      C2222   1.409       .  A
C2221      H2226   1.083       .  S
C2222      C2223   1.407       .  A
C2222      H2227   1.083       .  S
C2223      C2224   1.402       .  A
C2224      H2228   1.083       .  S
C2229      C2230   1.404       .  A
C2229      C2234   1.391       .  A
C2229      H2235   1.083       .  S
C2230      C2231   1.408       .  A
C2231      C2232   1.406       .  A
C2231      H2236   1.083       .  S
C2232      C2233   1.406       .  A
C2232      H2237   1.083       .  S
C2233      C2234   1.402       .  A
C2234      H2238   1.083       .  S
C2239      C2240   1.407       .  A
C2239      C2244   1.407       .  A
C2239      H2245   1.083       .  S
C2240      C2241   1.404       .  A
C2241      C2242   1.394       .  A
C2241      H2246   1.083       .  S
C2242      C2243   1.405       .  A
C2242      H2247   1.084       .  S
C2243      C2244   1.407       .  A
C2244      H2248   1.082       .  S
C2249      C2250   1.405       .  A
C2249      C2254   1.395       .  A
C2249      H2255   1.083       .  S
C2250      C2251   1.407       .  A
C2251      C2252   1.404       .  A
C2251      H2256   1.083       .  S
C2252      C2253   1.406       .  A
C2252      H2257   1.083       .  S
C2253      C2254   1.404       .  A
C2254      H2258   1.083       .  S
C2259      C2260   1.403       .  A
C2259      C2264   1.395       .  A
C2259      H2265   1.082       .  S
C2260      C2261   1.407       .  A
C2261      C2262   1.407       .  A
C2261      H2266   1.084       .  S
C2262      C2263   1.408       .  A
C2262      H2267   1.081       .  S
C2263      C2264   1.405       .  A
C2264      H2268   1.084       .  S
C2269      C2270   1.403       .  A
C2269      C2274   1.387       .  A
C2269      H2275   1.083       .  S
C2270      C2271   1.409       .  A
C2271      C2272   1.412       .  A
C2271      H2276   1.083       .  S
C2272      C2273   1.409       .  A
C2272      H2277   1.083       .  S
C2273      C2274   1.402       .  A
C2274      H2278   1.083       .  S
C2279      C2280   1.404       .  A
C2279      C2284   1.395       .  A
C2279      H2285   1.083       .  S
C2280      C2281   1.406       .  A
C2281      C2282   1.405       .  A
C2281      H2286   1.083       .  S
C2282      C2283   1.407       .  A
C2282      H2287   1.082       .  S
C2283      C2284   1.405       .  A
C2284      H2288   1.084       .  S
C2289      C2290   1.404       .  A
C2289      C2294   1.389       .  A
C2289      H2295   1.083       .  S
C2290      C2291   1.408       .  A
C2291      C2292   1.408       .  A
C2291      H2296   1.083       .  S
C2292      C2293   1.407       .  A
C2292      H2297   1.083       .  S
C2293      C2294   1.402       .  A
C2294      H2298   1.083       .  S
C2299      C2300   1.405       .  A
C2299      C2304   1.394       .  A
C2299      H2305   1.083       .  S
C2300      C2301   1.408       .  A
C2301      C2302   1.408       .  A
C2301      H2306   1.083       .  S
C2302      C2303   1.408       .  A
C2302      H2307   1.083       .  S
C2303      C2304   1.403       .  A
C2304      H2308   1.083       .  S
C2309      C2310   1.408       .  A
C2309      C2314   1.407       .  A
C2309      H2315   1.083       .  S
C2310      C2311   1.404       .  A
C2311      C2312   1.390       .  A
C2311      H2316   1.083       .  S
C2312      C2313   1.402       .  A
C2312      H2317   1.084       .  S
C2313      C2314   1.406       .  A
C2314      H2318   1.083       .  S
C2319      C2320   1.404       .  A
C2319      C2324   1.390       .  A
C2319      H2325   1.083       .  S
C2320      C2321   1.409       .  A
C2321      C2322   1.410       .  A
C2321      H2326   1.083       .  S
C2322      C2323   1.408       .  A
C2322      H2327   1.083       .  S
C2323      C2324   1.403       .  A
C2324      H2328   1.083       .  S
C2329      C2330   1.405       .  A
C2329      C2334   1.395       .  A
C2329      H2335   1.084       .  S
C2330      C2331   1.406       .  A
C2331      C2332   1.403       .  A
C2331      H2336   1.082       .  S
C2332      C2333   1.406       .  A
C2332      H2337   1.084       .  S
C2333      C2334   1.404       .  A
C2334      H2338   1.083       .  S
C2339      C2340   1.404       .  A
C2339      C2344   1.396       .  A
C2339      H2345   1.082       .  S
C2340      C2341   1.407       .  A
C2341      C2342   1.407       .  A
C2341      H2346   1.084       .  S
C2342      C2343   1.407       .  A
C2342      H2347   1.081       .  S
C2343      C2344   1.406       .  A
C2344      H2348   1.084       .  S
C2349      C2350   1.407       .  A
C2349      C2354   1.407       .  A
C2349      H2355   1.083       .  S
C2350      C2351   1.404       .  A
C2351      C2352   1.394       .  A
C2351      H2356   1.083       .  S
C2352      C2353   1.404       .  A
C2352      H2357   1.083       .  S
C2353      C2354   1.407       .  A
C2354      H2358   1.083       .  S
C2359      C2360   1.406       .  A
C2359      C2364   1.405       .  A
C2359      H2365   1.084       .  S
C2360      C2361   1.405       .  A
C2361      C2362   1.397       .  A
C2361      H2366   1.082       .  S
C2362      C2363   1.405       .  A
C2362      H2367   1.084       .  S
C2363      C2364   1.408       .  A
C2364      H2368   1.082       .  S
C2369      C2370   1.402       .  A
C2369      C2374   1.389       .  A
C2369      H2375   1.084       .  S
C2370      C2371   1.407       .  A
C2371      C2372   1.408       .  A
C2371      H2376   1.082       .  S
C2372      C2373   1.408       .  A
C2372      H2377   1.083       .  S
C2373      C2374   1.405       .  A
C2374      H2378   1.083       .  S
C2379      C2380   1.404       .  A
C2379      C2384   1.394       .  A
C2379      H2385   1.084       .  S
C2380      C2381   1.407       .  A
C2381      C2382   1.405       .  A
C2381      H2386   1.082       .  S
C2382      C2383   1.406       .  A
C2382      H2387   1.084       .  S
C2383      C2384   1.405       .  A
C2384      H2388   1.082       .  S
C2389      C2390   1.409       .  A
C2389      C2394   1.411       .  A
C2389      H2395   1.083       .  S
C2390      C2391   1.404       .  A
C2391      C2392   1.392       .  A
C2391      H2396   1.083       .  S
C2392      C2393   1.405       .  A
C2392      H2397   1.083       .  S
C2393      C2394   1.409       .  A
C2394      H2398   1.083       .  S
C2399      C2400   1.408       .  A
C2399      C2404   1.407       .  A
C2399      H2405   1.082       .  S
C2400      C2401   1.404       .  A
C2401      C2402   1.392       .  A
C2401      H2406   1.084       .  S
C2402      C2403   1.403       .  A
C2402      H2407   1.082       .  S
C2403      C2404   1.406       .  A
C2404      H2408   1.084       .  S
C2409      C2410   1.404       .  A
C2409      C2414   1.387       .  A
C2409      H2415   1.083       .  S
C2410      C2411   1.409       .  A
C2411      C2412   1.408       .  A
C2411      H2416   1.083       .  S
C2412      C2413   1.405       .  A
C2412      H2417   1.083       .  S
C2413      C2414   1.401       .  A
C2414      H2418   1.084       .  S
C2419      C2420   1.400       .  A
C2419      C2424   1.389       .  A
C2419      H2425   1.084       .  S
C2420      C2421   1.406       .  A
C2421      C2422   1.408       .  A
C2421      H2426   1.083       .  S
C2422      C2423   1.409       .  A
C2422      H2427   1.083       .  S
C2423      C2424   1.404       .  A
C2424      H2428   1.082       .  S
C2429      C2430   1.403       .  A
C2429      C2434   1.395       .  A
C2429      H2435   1.083       .  S
C2430      C2431   1.406       .  A
C2431      C2432   1.406       .  A
C2431      H2436   1.083       .  S
C2432      C2433   1.407       .  A
C2432      H2437   1.082       .  S
C2433      C2434   1.406       .  A
C2434      H2438   1.083       .  S
C2439      C2440   1.405       .  A
C2439      C2444   1.395       .  A
C2439      H2445   1.083       .  S
C2440      C2441   1.407       .  A
C2441      C2442   1.405       .  A
C2441      H2446   1.082       .  S
C2442      C2443   1.406       .  A
C2442      H2447   1.083       .  S
C2443      C2444   1.405       .  A
C2444      H2448   1.083       .  S
C2449      C2450   1.407       .  A
C2449      C2454   1.407       .  A
C2449      H2455   1.082       .  S
C2450      C2451   1.404       .  A
C2451      C2452   1.391       .  A
C2451      H2456   1.084       .  S
C2452      C2453   1.402       .  A
C2452      H2457   1.083       .  S
C2453      C2454   1.407       .  A
C2454      H2458   1.084       .  S
C2459      C2460   1.404       .  A
C2459      C2464   1.390       .  A
C2459      H2465   1.083       .  S
C2460      C2461   1.408       .  A
C2461      C2462   1.408       .  A
C2461      H2466   1.083       .  S
C2462      C2463   1.406       .  A
C2462      H2467   1.083       .  S
C2463      C2464   1.402       .  A
C2464      H2468   1.083       .  S
C2469      C2470   1.404       .  A
C2469      C2474   1.392       .  A
C2469      H2475   1.083       .  S
C2470      C2471   1.408       .  A
C2471      C2472   1.407       .  A
C2471      H2476   1.082       .  S
C2472      C2473   1.407       .  A
C2472      H2477   1.084       .  S
C2473      C2474   1.403       .  A
C2474      H2478   1.083       .  S
C2479      C2480   1.404       .  A
C2479      C2484   1.390       .  A
C2479      H2485   1.083       .  S
C2480      C2481   1.408       .  A
C2481      C2482   1.409       .  A
C2481      H2486   1.083       .  S
C2482      C2483   1.407       .  A
C2482      H2487   1.083       .  S
C2483      C2484   1.403       .  A
C2484      H2488   1.084       .  S
C2489      C2490   1.407       .  A
C2489      C2494   1.406       .  A
C2489      H2495   1.083       .  S
C2490      C2491   1.404       .  A
C2491      C2492   1.391       .  A
C2491      H2496   1.083       .  S
C2492      C2493   1.401       .  A
C2492      H2497   1.084       .  S
C2493      C2494   1.405       .  A
C2494      H2498   1.083       .  S
C2499      C2500   1.404       .  A
C2499      C2504   1.391       .  A
C2499      H2505   1.084       .  S
C2500      C2501   1.407       .  A
C2501      C2502   1.407       .  A
C2501      H2506   1.082       .  S
C2502      C2503   1.407       .  A
C2502      H2507   1.083       .  S
C2503      C2504   1.404       .  A
C2504      H2508   1.083       .  S
C2509      C2510   1.408       .  A
C2509      C2514   1.406       .  A
C2509      H2515   1.083       .  S
C2510      C2511   1.404       .  A
C2511      C2512   1.391       .  A
C2511      H2516   1.083       .  S
C2512      C2513   1.403       .  A
C2512      H2517   1.084       .  S
C2513      C2514   1.407       .  A
C2514      H2518   1.083       .  S
C2519      C2520   1.407       .  A
C2519      C2524   1.406       .  A
C2519      H2525   1.083       .  S
C2520      C2521   1.404       .  A
C2521      C2522   1.393       .  A
C2521      H2526   1.083       .  S
C2522      C2523   1.404       .  A
C2522      H2527   1.084       .  S
C2523      C2524   1.407       .  A
C2524      H2528   1.082       .  S
C2529      C2530   1.405       .  A
C2529      C2534   1.393       .  A
C2529      H2535   1.083       .  S
C2530      C2531   1.408       .  A
C2531      C2532   1.408       .  A
C2531      H2536   1.083       .  S
C2532      C2533   1.406       .  A
C2532      H2537   1.083       .  S
C2533      C2534   1.402       .  A
C2534      H2538   1.084       .  S
C2539      C2540   1.406       .  A
C2539      C2544   1.405       .  A
C2539      H2545   1.084   1_565  S
C2540      C2541   1.405       .  A
C2541      C2542   1.394       .  A
C2541      H2546   1.082       .  S
C2542      C2543   1.404       .  A
C2542      H2547   1.084       .  S
C2543      C2544   1.407       .  A
C2544      H2548   1.082       .  S
C2549      C2550   1.407       .  A
C2549      C2554   1.405       .  A
C2549      H2555   1.084       .  S
C2550      C2551   1.404       .  A
C2551      C2552   1.395       .  A
C2551      H2556   1.082       .  S
C2552      C2553   1.405       .  A
C2552      H2557   1.084       .  S
C2553      C2554   1.407       .  A
C2554      H2558   1.082       .  S
C2559      C2560   1.403       .  A
C2559      C2564   1.389       .  A
C2559      H2565   1.083       .  S
C2560      C2561   1.408       .  A
C2561      C2562   1.409       .  A
C2561      H2566   1.083       .  S
C2562      C2563   1.408       .  A
C2562      H2567   1.083       .  S
C2563      C2564   1.404       .  A
C2564      H2568   1.083       .  S
C2569      C2570   1.405       .  A
C2569      C2574   1.394       .  A
C2569      H2575   1.084       .  S
C2570      C2571   1.406       .  A
C2571      C2572   1.404       .  A
C2571      H2576   1.082       .  S
C2572      C2573   1.406       .  A
C2572      H2577   1.083       .  S
C2573      C2574   1.403       .  A
C2574      H2578   1.083       .  S
C2579      C2580   1.402       .  A
C2579      C2584   1.392       .  A
C2579      H2585   1.085       .  S
C2580      C2581   1.407       .  A
C2581      C2582   1.406       .  A
C2581      H2586   1.081       .  S
C2582      C2583   1.407       .  A
C2582      H2587   1.084       .  S
C2583      C2584   1.405       .  A
C2584      H2588   1.082       .  S
C2589      C2590   1.407       .  A
C2589      C2594   1.407       .  A
C2589      H2595   1.083       .  S
C2590      C2591   1.404       .  A
C2591      C2592   1.391       .  A
C2591      H2596   1.083       .  S
C2592      C2593   1.402       .  A
C2592      H2597   1.084       .  S
C2593      C2594   1.406       .  A
C2594      H2598   1.083       .  S
C2599      C2600   1.407       .  A
C2599      C2604   1.409       .  A
C2599      H2605   1.083       .  S
C2600      C2601   1.404       .  A
C2601      C2602   1.391       .  A
C2601      H2606   1.083       .  S
C2602      C2603   1.404       .  A
C2602      H2607   1.084       .  S
C2603      C2604   1.408       .  A
C2604      H2608   1.082       .  S
C2609      C2610   1.407       .  A
C2609      C2614   1.406       .  A
C2609      H2615   1.083       .  S
C2610      C2611   1.404       .  A
C2611      C2612   1.392       .  A
C2611      H2616   1.082       .  S
C2612      C2613   1.404       .  A
C2612      H2617   1.084       .  S
C2613      C2614   1.407       .  A
C2614      H2618   1.082       .  S
C2619      C2620   1.404       .  A
C2619      C2624   1.389       .  A
C2619      H2625   1.083       .  S
C2620      C2621   1.408       .  A
C2621      C2622   1.409       .  A
C2621      H2626   1.083       .  S
C2622      C2623   1.407       .  A
C2622      H2627   1.083       .  S
C2623      C2624   1.402       .  A
C2624      H2628   1.084       .  S
C2629      C2630   1.404       .  A
C2629      C2634   1.393       .  A
C2629      H2635   1.083       .  S
C2630      C2631   1.408       .  A
C2631      C2632   1.407       .  A
C2631      H2636   1.083       .  S
C2632      C2633   1.408       .  A
C2632      H2637   1.083       .  S
C2633      C2634   1.403       .  A
C2634      H2638   1.083       .  S
C2639      C2640   1.407       .  A
C2639      C2644   1.404       .  A
C2639      H2645   1.082       .  S
C2640      C2641   1.405       .  A
C2641      C2642   1.395       .  A
C2641      H2646   1.084       .  S
C2642      C2643   1.403       .  A
C2642      H2647   1.082       .  S
C2643      C2644   1.405       .  A
C2644      H2648   1.084       .  S
C2649      C2650   1.404       .  A
C2649      C2654   1.391       .  A
C2649      H2655   1.084       .  S
C2650      C2651   1.407       .  A
C2651      C2652   1.407       .  A
C2651      H2656   1.082       .  S
C2652      C2653   1.407       .  A
C2652      H2657   1.083       .  S
C2653      C2654   1.404       .  A
C2654      H2658   1.083       .  S
C2659      C2660   1.407       .  A
C2659      C2664   1.407       .  A
C2659      H2665   1.083       .  S
C2660      C2661   1.406       .  A
C2661      C2662   1.394       .  A
C2661      H2666   1.083       .  S
C2662      C2663   1.403       .  A
C2662      H2667   1.083       .  S
C2663      C2664   1.407       .  A
C2664      H2668   1.083       .  S
C2669      C2670   1.403       .  A
C2669      C2674   1.387       .  A
C2669      H2675   1.083       .  S
C2670      C2671   1.408       .  A
C2671      C2672   1.408       .  A
C2671      H2676   1.083       .  S
C2672      C2673   1.407       .  A
C2672      H2677   1.083       .  S
C2673      C2674   1.402       .  A
C2674      H2678   1.083       .  S
C2679      C2680   1.407       .  A
C2679      C2684   1.409       .  A
C2679      H2685   1.083       .  S
C2680      C2681   1.404       .  A
C2681      C2682   1.391       .  A
C2681      H2686   1.083       .  S
C2682      C2683   1.404       .  A
C2682      H2687   1.084       .  S
C2683      C2684   1.408       .  A
C2684      H2688   1.082       .  S
C2689      C2690   1.406       .  A
C2689      C2694   1.406       .  A
C2689      H2695   1.083       .  S
C2690      C2691   1.404       .  A
C2691      C2692   1.394       .  A
C2691      H2696   1.083       .  S
C2692      C2693   1.405       .  A
C2692      H2697   1.084       .  S
C2693      C2694   1.407       .  A
C2694      H2698   1.082       .  S
C2699      C2700   1.404       .  A
C2699      C2704   1.395       .  A
C2699      H2705   1.081       .  S
C2700      C2701   1.407       .  A
C2701      C2702   1.406       .  A
C2701      H2706   1.085       .  S
C2702      C2703   1.408       .  A
C2702      H2707   1.080       .  S
C2703      C2704   1.405       .  A
C2704      H2708   1.086       .  S
C2709      C2710   1.405       .  A
C2709      C2714   1.394       .  A
C2709      H2715   1.083       .  S
C2710      C2711   1.407       .  A
C2711      C2712   1.406       .  A
C2711      H2716   1.083       .  S
C2712      C2713   1.407       .  A
C2712      H2717   1.083       .  S
C2713      C2714   1.403       .  A
C2714      H2718   1.083       .  S
C2719      C2720   1.405       .  A
C2719      C2724   1.397       .  A
C2719      H2725   1.082       .  S
C2720      C2721   1.406       .  A
C2721      C2722   1.404       .  A
C2721      H2726   1.084       .  S
C2722      C2723   1.407       .  A
C2722      H2727   1.082       .  S
C2723      C2724   1.406       .  A
C2724      H2728   1.084       .  S
C2729      C2730   1.407       .  A
C2729      C2734   1.408       .  A
C2729      H2735   1.083       .  S
C2730      C2731   1.405       .  A
C2731      C2732   1.392       .  A
C2731      H2736   1.083       .  S
C2732      C2733   1.403       .  A
C2732      H2737   1.083       .  S
C2733      C2734   1.407       .  A
C2734      H2738   1.083       .  S
C2739      C2740   1.405       .  A
C2739      C2744   1.392       .  A
C2739      H2745   1.082       .  S
C2740      C2741   1.408       .  A
C2741      C2742   1.409       .  A
C2741      H2746   1.084       .  S
C2742      C2743   1.408       .  A
C2742      H2747   1.081       .  S
C2743      C2744   1.403       .  A
C2744      H2748   1.084       .  S
C2749      C2750   1.406       .  A
C2749      C2754   1.404       .  A
C2749      H2755   1.083       .  S
C2750      C2751   1.405       .  A
C2751      C2752   1.399       .  A
C2751      H2756   1.083       .  S
C2752      C2753   1.407       .  A
C2752      H2757   1.083       .  S
C2753      C2754   1.406       .  A
C2754      H2758   1.082       .  S
C2759      C2760   1.406       .  A
C2759      C2764   1.406       .  A
C2759      H2765   1.083       .  S
C2760      C2761   1.403       .  A
C2761      C2762   1.393       .  A
C2761      H2766   1.084       .  S
C2762      C2763   1.404       .  A
C2762      H2767   1.083       .  S
C2763      C2764   1.406       .  A
C2764      H2768   1.083       .  S
C2769      C2770   1.406       .  A
C2769      C2774   1.404       .  A
C2769      H2775   1.083       .  S
C2770      C2771   1.405       .  A
C2771      C2772   1.396       .  A
C2771      H2776   1.084       .  S
C2772      C2773   1.406       .  A
C2772      H2777   1.083       .  S
C2773      C2774   1.406       .  A
C2774      H2778   1.083       .  S
C2779      C2780   1.404       .  A
C2779      C2784   1.393       .  A
C2779      H2785   1.083       .  S
C2780      C2781   1.407       .  A
C2781      C2782   1.407       .  A
C2781      H2786   1.083       .  S
C2782      C2783   1.408       .  A
C2782      H2787   1.083       .  S
C2783      C2784   1.404       .  A
C2784      H2788   1.083       .  S
C2789      C2790   1.402       .  A
C2789      C2794   1.391       .  A
C2789      H2795   1.084       .  S
C2790      C2791   1.407       .  A
C2791      C2792   1.408       .  A
C2791      H2796   1.082       .  S
C2792      C2793   1.407       .  A
C2792      H2797   1.083       .  S
C2793      C2794   1.405       .  A
C2794      H2798   1.083       .  S
C2799      C2800   1.409       .  A
C2799      C2804   1.411       .  A
C2799      H2805   1.083       .  S
C2800      C2801   1.405       .  A
C2801      C2802   1.391       .  A
C2801      H2806   1.083       .  S
C2802      C2803   1.403       .  A
C2802      H2807   1.084       .  S
C2803      C2804   1.409       .  A
C2804      H2808   1.082       .  S
C2809      C2810   1.409       .  A
C2809      C2814   1.410       .  A
C2809      H2815   1.083       .  S
C2810      C2811   1.405       .  A
C2811      C2812   1.394       .  A
C2811      H2816   1.083       .  S
C2812      C2813   1.403       .  A
C2812      H2817   1.084       .  S
C2813      C2814   1.408       .  A
C2814      H2818   1.083       .  S
C2819      C2820   1.403       .  A
C2819      C2824   1.394       .  A
C2819      H2825   1.083       .  S
C2820      C2821   1.408       .  A
C2821      C2822   1.406       .  A
C2821      H2826   1.083       .  S
C2822      C2823   1.407       .  A
C2822      H2827   1.083       .  S
C2823      C2824   1.405       .  A
C2824      H2828   1.083       .  S
C2829      C2830   1.407       .  A
C2829      C2834   1.405       .  A
C2829      H2835   1.083       .  S
C2830      C2831   1.406       .  A
C2831      C2832   1.396       .  A
C2831      H2836   1.083       .  S
C2832      C2833   1.404       .  A
C2832      H2837   1.083       .  S
C2833      C2834   1.406       .  A
C2834      H2838   1.083       .  S
C2839      C2840   1.404       .  A
C2839      C2844   1.393       .  A
C2839      H2845   1.083       .  S
C2840      C2841   1.408       .  A
C2841      C2842   1.407       .  A
C2841      H2846   1.083       .  S
C2842      C2843   1.407       .  A
C2842      H2847   1.083       .  S
C2843      C2844   1.405       .  A
C2844      H2848   1.083       .  S
C2849      C2850   1.407       .  A
C2849      C2854   1.406       .  A
C2849      H2855   1.083       .  S
C2850      C2851   1.405       .  A
C2851      C2852   1.395       .  A
C2851      H2856   1.084       .  S
C2852      C2853   1.404       .  A
C2852      H2857   1.083       .  S
C2853      C2854   1.407       .  A
C2854      H2858   1.083       .  S
C2859      C2860   1.408       .  A
C2859      C2864   1.408       .  A
C2859      H2865   1.082       .  S
C2860      C2861   1.404       .  A
C2861      C2862   1.394       .  A
C2861      H2866   1.084       .  S
C2862      C2863   1.405       .  A
C2862      H2867   1.083       .  S
C2863      C2864   1.407       .  A
C2864      H2868   1.083       .  S
C2869      C2870   1.407       .  A
C2869      C2874   1.404       .  A
C2869      H2875   1.084       .  S
C2870      C2871   1.404       .  A
C2871      C2872   1.396       .  A
C2871      H2876   1.082       .  S
C2872      C2873   1.405       .  A
C2872      H2877   1.084       .  S
C2873      C2874   1.407       .  A
C2874      H2878   1.082       .  S
C2879      C2880   1.407       .  A
C2879      C2884   1.406       .  A
C2879      H2885   1.082       .  S
C2880      C2881   1.402       .  A
C2881      C2882   1.392       .  A
C2881      H2886   1.084       .  S
C2882      C2883   1.406       .  A
C2882      H2887   1.083       .  S
C2883      C2884   1.406       .  A
C2884      H2888   1.083       .  S
C2889      C2890   1.406       .  A
C2889      C2894   1.396       .  A
C2889      H2895   1.084       .  S
C2890      C2891   1.407       .  A
C2891      C2892   1.406       .  A
C2891      H2896   1.082       .  S
C2892      C2893   1.407       .  A
C2892      H2897   1.084       .  S
C2893      C2894   1.404       .  A
C2894      H2898   1.083       .  S
C2899      C2900   1.407       .  A
C2899      C2904   1.407       .  A
C2899      H2905   1.083       .  S
C2900      C2901   1.403       .  A
C2901      C2902   1.393       .  A
C2901      H2906   1.083       .  S
C2902      C2903   1.404       .  A
C2902      H2907   1.083       .  S
C2903      C2904   1.408       .  A
C2904      H2908   1.083       .  S
C2909      C2910   1.407       .  A
C2909      C2914   1.407       .  A
C2909      H2915   1.083       .  S
C2910      C2911   1.405       .  A
C2911      C2912   1.392       .  A
C2911      H2916   1.083       .  S
C2912      C2913   1.403       .  A
C2912      H2917   1.084       .  S
C2913      C2914   1.407       .  A
C2914      H2918   1.083       .  S
C2919      C2920   1.406       .  A
C2919      C2924   1.392       .  A
C2919      H2925   1.083       .  S
C2920      C2921   1.408       .  A
C2921      C2922   1.409       .  A
C2921      H2926   1.083       .  S
C2922      C2923   1.408       .  A
C2922      H2927   1.083       .  S
C2923      C2924   1.402       .  A
C2924      H2928   1.084       .  S
C2929      C2930   1.408       .  A
C2929      C2934   1.406       .  A
C2929      H2935   1.081       .  S
C2930      C2931   1.404       .  A
C2931      C2932   1.395       .  A
C2931      H2936   1.085       .  S
C2932      C2933   1.405       .  A
C2932      H2937   1.082       .  S
C2933      C2934   1.406       .  A
C2934      H2938   1.084       .  S
C2939      C2940   1.405       .  A
C2939      C2944   1.395       .  A
C2939      H2945   1.083       .  S
C2940      C2941   1.407       .  A
C2941      C2942   1.404       .  A
C2941      H2946   1.083       .  S
C2942      C2943   1.407       .  A
C2942      H2947   1.083       .  S
C2943      C2944   1.405       .  A
C2944      H2948   1.083       .  S
C2949      C2950   1.407       .  A
C2949      C2954   1.404       .  A
C2949      H2955   1.081       .  S
C2950      C2951   1.404       .  A
C2951      C2952   1.393       .  A
C2951      H2956   1.085       .  S
C2952      C2953   1.404       .  A
C2952      H2957   1.082       .  S
C2953      C2954   1.406       .  A
C2954      H2958   1.085       .  S
C2959      C2960   1.405       .  A
C2959      C2964   1.394       .  A
C2959      H2965   1.084       .  S
C2960      C2961   1.406       .  A
C2961      C2962   1.406       .  A
C2961      H2966   1.082       .  S
C2962      C2963   1.408       .  A
C2962      H2967   1.083       .  S
C2963      C2964   1.405       .  A
C2964      H2968   1.083       .  S
C2969      C2970   1.404       .  A
C2969      C2974   1.395       .  A
C2969      H2975   1.083       .  S
C2970      C2971   1.406       .  A
C2971      C2972   1.404       .  A
C2971      H2976   1.083       .  S
C2972      C2973   1.407       .  A
C2972      H2977   1.083       .  S
C2973      C2974   1.405       .  A
C2974      H2978   1.084       .  S
C2979      C2980   1.404       .  A
C2979      C2984   1.396       .  A
C2979      H2985   1.082       .  S
C2980      C2981   1.407       .  A
C2981      C2982   1.404       .  A
C2981      H2986   1.084       .  S
C2982      C2983   1.406       .  A
C2982      H2987   1.082       .  S
C2983      C2984   1.406       .  A
C2984      H2988   1.084       .  S
C2989      C2990   1.404       .  A
C2989      C2994   1.393       .  A
C2989      H2995   1.083       .  S
C2990      C2991   1.406       .  A
C2991      C2992   1.406       .  A
C2991      H2996   1.083       .  S
C2992      C2993   1.407       .  A
C2992      H2997   1.083       .  S
C2993      C2994   1.405       .  A
C2994      H2998   1.083       .  S
C2999      C3000   1.405       .  A
C2999      C3004   1.397       .  A
C2999      H3005   1.083       .  S
C3000      C3001   1.403       .  A
C3001      C3002   1.401       .  A
C3001      H3006   1.083       .  S
C3002      C3003   1.407       .  A
C3002      H3007   1.083       .  S
C3003      C3004   1.404       .  A
C3004      H3008   1.083       .  S
C3009      C3010   1.405       .  A
C3009      C3014   1.393       .  A
C3009      H3015   1.083       .  S
C3010      C3011   1.407       .  A
C3011      C3012   1.404       .  A
C3011      H3016   1.082       .  S
C3012      C3013   1.406       .  A
C3012      H3017   1.083       .  S
C3013      C3014   1.402       .  A
C3014      H3018   1.083       .  S
C3019      C3020   1.406       .  A
C3019      C3024   1.404       .  A
C3019      H3025   1.083       .  S
C3020      C3021   1.404       .  A
C3021      C3022   1.394       .  A
C3021      H3026   1.083       .  S
C3022      C3023   1.405       .  A
C3022      H3027   1.083       .  S
C3023      C3024   1.407       .  A
C3024      H3028   1.083       .  S
C3029      C3030   1.405       .  A
C3029      C3034   1.398       .  A
C3029      H3035   1.083       .  S
C3030      C3031   1.403       .  A
C3031      C3032   1.397       .  A
C3031      H3036   1.083       .  S
C3032      C3033   1.406       .  A
C3032      H3037   1.083       .  S
C3033      C3034   1.404       .  A
C3034      H3038   1.083       .  S
C3039      C3040   1.408       .  A
C3039      C3044   1.404       .  A
C3039      H3045   1.083       .  S
C3040      C3041   1.405       .  A
C3041      C3042   1.395       .  A
C3041      H3046   1.083       .  S
C3042      C3043   1.403       .  A
C3042      H3047   1.083       .  S
C3043      C3044   1.405       .  A
C3044      H3048   1.083       .  S
C3049      C3050   1.407       .  A
C3049      C3054   1.406       .  A
C3049      H3055   1.083       .  S
C3050      C3051   1.405       .  A
C3051      C3052   1.395       .  A
C3051      H3056   1.083       .  S
C3052      C3053   1.404       .  A
C3052      H3057   1.083       .  S
C3053      C3054   1.407       .  A
C3054      H3058   1.083       .  S
C3059      C3060   1.407       .  A
C3059      C3064   1.407       .  A
C3059      H3065   1.084       .  S
C3060      C3061   1.405       .  A
C3061      C3062   1.392       .  A
C3061      H3066   1.082       .  S
C3062      C3063   1.403       .  A
C3062      H3067   1.084       .  S
C3063      C3064   1.408       .  A
C3064      H3068   1.082       .  S
C3069      C3070   1.404       .  A
C3069      C3074   1.394       .  A
C3069      H3075   1.085       .  S
C3070      C3071   1.407       .  A
C3071      C3072   1.406       .  A
C3071      H3076   1.081       .  S
C3072      C3073   1.406       .  A
C3072      H3077   1.084       .  S
C3073      C3074   1.405       .  A
C3074      H3078   1.082       .  S
C3079      C3080   1.408       .  A
C3079      C3084   1.406       .  A
C3079      H3085   1.082       .  S
C3080      C3081   1.403       .  A
C3081      C3082   1.394       .  A
C3081      H3086   1.084       .  S
C3082      C3083   1.405       .  A
C3082      H3087   1.082       .  S
C3083      C3084   1.407       .  A
C3084      H3088   1.084       .  S
C3089      C3090   1.401       .  A
C3089      C3094   1.390       .  A
C3089      H3095   1.083       .  S
C3090      C3091   1.407       .  A
C3091      C3092   1.408       .  A
C3091      H3096   1.083       .  S
C3092      C3093   1.408       .  A
C3092      H3097   1.083       .  S
C3093      C3094   1.405       .  A
C3094      H3098   1.083       .  S
C3099      C3100   1.407       .  A
C3099      C3104   1.405       .  A
C3099      H3105   1.081       .  S
C3100      C3101   1.406       .  A
C3101      C3102   1.396       .  A
C3101      H3106   1.085       .  S
C3102      C3103   1.404       .  A
C3102      H3107   1.081       .  S
C3103      C3104   1.406       .  A
C3104      H3108   1.085       .  S
C3109      C3110   1.408       .  A
C3109      C3114   1.408       .  A
C3109      H3115   1.082       .  S
C3110      C3111   1.404       .  A
C3111      C3112   1.394       .  A
C3111      H3116   1.083       .  S
C3112      C3113   1.405       .  A
C3112      H3117   1.083       .  S
C3113      C3114   1.408       .  A
C3114      H3118   1.083       .  S
C3119      C3120   1.404       .  A
C3119      C3124   1.391       .  A
C3119      H3125   1.084       .  S
C3120      C3121   1.407       .  A
C3121      C3122   1.407       .  A
C3121      H3126   1.082       .  S
C3122      C3123   1.406       .  A
C3122      H3127   1.083       .  S
C3123      C3124   1.403       .  A
C3124      H3128   1.083       .  S
C3129      C3130   1.407       .  A
C3129      C3134   1.404       .  A
C3129      H3135   1.083       .  S
C3130      C3131   1.405       .  A
C3131      C3132   1.394       .  A
C3131      H3136   1.083       .  S
C3132      C3133   1.405       .  A
C3132      H3137   1.083       .  S
C3133      C3134   1.406       .  A
C3134      H3138   1.083       .  S
C3139      C3140   1.406       .  A
C3139      C3144   1.406       .  A
C3139      H3145   1.082       .  S
C3140      C3141   1.404       .  A
C3141      C3142   1.394       .  A
C3141      H3146   1.084       .  S
C3142      C3143   1.405       .  A
C3142      H3147   1.083       .  S
C3143      C3144   1.408       .  A
C3144      H3148   1.083       .  S
C3149      C3150   1.407       .  A
C3149      C3154   1.409       .  A
C3149      H3155   1.082       .  S
C3150      C3151   1.404       .  A
C3151      C3152   1.393       .  A
C3151      H3156   1.084       .  S
C3152      C3153   1.406       .  A
C3152      H3157   1.083       .  S
C3153      C3154   1.408       .  A
C3154      H3158   1.083       .  S
C3159      C3160   1.407       .  A
C3159      C3164   1.409       .  A
C3159      H3165   1.083       .  S
C3160      C3161   1.400       .  A
C3161      C3162   1.390       .  A
C3161      H3166   1.084       .  S
C3162      C3163   1.405       .  A
C3162      H3167   1.083       .  S
C3163      C3164   1.408       .  A
C3164      H3168   1.083       .  S
