geometry optimzed in LAMMPS
_audit_creation_date              2020-11-30 
_audit_creation_method            'lammps2cif' 
_symmetry_space_group_name_H-M    'P1' 
_symmetry_Int_Tables_number       1 
_symmetry_cell_setting            triclinic 
loop_ 
_symmetry_equiv_pos_as_xyz 
  x,y,z 
_cell_length_a                    54.41732561 
_cell_length_b                    54.390782517713944 
_cell_length_c                    54.37618005699875 
_cell_angle_alpha                 89.98644663240763 
_cell_angle_beta                  90.00177147856635 
_cell_angle_gamma                 90.04867543594268 
loop_ 
_atom_site_label 
_atom_site_type_symbol 
_atom_site_fract_x 
_atom_site_fract_y 
_atom_site_fract_z 
_atom_site_charge 
N1          N  0.46188769  0.66535546  0.00208705    -0.27400
N2          N  0.44998971  0.64415863  0.00274812    -0.35200
C3          C  0.42567989  0.64850257  0.00196991     0.01000
C4          C  0.42191956  0.67368263  0.00067011     0.07000
C5          C  0.44538947  0.68374156  0.00074763    -0.06100
H6          H  0.41182230  0.63423968  0.00203133     0.07700
H7          H  0.45021721  0.70302480  0.00016591     0.08900
Cu8        Cu  0.46694886  0.61000594  0.00405400     0.44200
Cu9        Cu  0.50005741  0.66839515  0.00318709     0.42000
Cu10       Cu  0.53286128  0.61037657  0.00381915     0.43900
N11         N  0.48799942  0.57820574  0.00359348    -0.34800
N12         N  0.51227953  0.57843329  0.00337932    -0.29000
C13         C  0.52059608  0.55516913  0.00305068    -0.05100
C14         C  0.50056242  0.53953016  0.00307613     0.07100
C15         C  0.48017661  0.55473511  0.00339796     0.00900
H16         H  0.53980947  0.55007124  0.00295538     0.08500
H17         H  0.46107898  0.54919305  0.00360555     0.07600
N18         N  0.54996362  0.64431205  0.00442380    -0.36200
N19         N  0.53823013  0.66556605  0.00429405    -0.28400
C20         C  0.55489422  0.68387330  0.00485849    -0.03600
C21         C  0.57829286  0.67362802  0.00530557     0.05000
C22         C  0.57428237  0.64846141  0.00502984     0.03100
H23         H  0.55020674  0.70318588  0.00473996     0.08200
H24         H  0.58793382  0.63404110  0.00544573     0.07000
N25         N  0.46320418  0.38656416  0.00411774    -0.27400
N26         N  0.45130695  0.40771852  0.00475668    -0.35200
C27         C  0.42699617  0.40336674  0.00496515     0.01000
C28         C  0.42315400  0.37816222  0.00438317     0.07000
C29         C  0.44665391  0.36812552  0.00382986    -0.06100
H30         H  0.41321435  0.41766568  0.00523240     0.07700
H31         H  0.45147954  0.34885266  0.00344075     0.08900
Cu32       Cu  0.46839317  0.44172653  0.00490534     0.44200
Cu33       Cu  0.50151290  0.38412387  0.00376608     0.42000
Cu34       Cu  0.53485324  0.44218742  0.00522958     0.43900
N35         N  0.48920799  0.47357669  0.00421075    -0.34800
N36         N  0.51350297  0.47382578  0.00440206    -0.29000
C37         C  0.52129882  0.49730077  0.00384657    -0.05100
C38         C  0.50090983  0.51248675  0.00330459     0.07100
C39         C  0.48088888  0.49683730  0.00352941     0.00900
H40         H  0.54039237  0.50286071  0.00393148     0.08500
H41         H  0.46167451  0.50192825  0.00332088     0.07600
N42         N  0.55185314  0.40800023  0.00433257    -0.36200
N43         N  0.53981166  0.38688957  0.00371215    -0.28400
C44         C  0.55620434  0.36837590  0.00290207    -0.03600
C45         C  0.57979812  0.37822001  0.00297250     0.05000
C46         C  0.57615961  0.40346946  0.00390346     0.03100
H47         H  0.55117195  0.34916056  0.00209089     0.08200
H48         H  0.59008867  0.41765098  0.00434113     0.07000
N49         N  0.63904193  0.01714011  0.46165081    -0.27400
N50         N  0.61772946  0.01688012  0.44999601    -0.35200
C51         C  0.62182616  0.01737218  0.42561403     0.01000
C52         C  0.64698954  0.01801239  0.42154223     0.07000
C53         C  0.65727226  0.01784045  0.44493528    -0.06100
H54         H  0.60740192  0.01756676  0.41194018     0.07700
H55         H  0.67658578  0.01808723  0.44959981     0.08900
Cu56       Cu  0.58384480  0.01625801  0.46750612     0.44200
Cu57       Cu  0.64235995  0.01673566  0.49980695     0.42000
Cu58       Cu  0.58485643  0.01457528  0.53364759     0.43900
N59         N  0.55232958  0.01633174  0.48899484    -0.34800
N60         N  0.55274199  0.01580914  0.51329270    -0.29000
C61         C  0.52956275  0.01681899  0.52181220    -0.05100
C62         C  0.51380689  0.01796184  0.50189565     0.07100
C63         C  0.52884466  0.01757912  0.48137666     0.00900
H64         H  0.52460781  0.01692330  0.54108098     0.08500
H65         H  0.52319739  0.01852624  0.46232326     0.07600
N66         N  0.61910134  0.01549834  0.55019232    -0.36200
N67         N  0.64010291  0.01644035  0.53803649    -0.28400
C68         C  0.65870054  0.01738767  0.55433340    -0.03600
C69         C  0.64894823  0.01705737  0.57796061     0.05000
C70         C  0.62373039  0.01581883  0.57445575     0.03100
H71         H  0.67786658  0.01848147  0.54921689     0.08200
H72         H  0.60960404  0.01516488  0.58841209     0.07000
N73         N  0.36134028  0.03180939  0.46501434    -0.27400
N74         N  0.38218580  0.02788097  0.45320135    -0.35200
C75         C  0.37773704  0.02709576  0.42890194     0.01000
C76         C  0.35280470  0.03068214  0.42502522     0.07000
C77         C  0.34302035  0.03357789  0.44846326    -0.06100
H78         H  0.39173612  0.02391351  0.41515762     0.07700
H79         H  0.32402111  0.03688851  0.45324478     0.08900
Cu80       Cu  0.41593813  0.02399284  0.47038382     0.44200
Cu81       Cu  0.35902456  0.03436368  0.50317120     0.42000
Cu82       Cu  0.41720266  0.02956263  0.53628043     0.43900
N83         N  0.44795661  0.02235660  0.49091293    -0.34800
N84         N  0.44849590  0.02446963  0.51512098    -0.29000
C85         C  0.47195014  0.02299157  0.52281331    -0.05100
C86         C  0.48684345  0.01989692  0.50241847     0.07100
C87         C  0.47102904  0.01957649  0.48251949     0.00900
H88         H  0.47771349  0.02434059  0.54180847     0.08500
H89         H  0.47589657  0.01762179  0.46332914     0.07600
N90         N  0.38324057  0.03302735  0.55324060    -0.36200
N91         N  0.36211720  0.03468706  0.54135766    -0.28400
C92         C  0.34374279  0.03580138  0.55788522    -0.03600
C93         C  0.35372286  0.03478386  0.58139379     0.05000
C94         C  0.37887583  0.03306934  0.57756912     0.03100
H95         H  0.32453520  0.03709846  0.55298359     0.08200
H96         H  0.39310330  0.03148842  0.59135120     0.07000
O97         O  0.79629615  0.02183680  0.03711861    -0.73000
O98         O  0.79632754  0.02591700  0.96227961    -0.74000
O99         O  0.79623374  0.98620356  0.99751053    -0.62600
O100        O  0.79726973  0.06126418  0.00192853    -0.71000
O101        O  0.83798918  0.05939493  0.00322986    -0.70600
O102        O  0.83697615  0.98708690  0.99606792    -0.61800
O103        O  0.83708403  0.02677211  0.96324812    -0.74400
O104        O  0.83701301  0.01993169  0.03621819    -0.73100
Cu105      Cu  0.79493760  0.02379409  0.99970195     1.04600
Cu106      Cu  0.83851768  0.02324611  0.99968886     1.04300
C107        C  0.81690643  0.02033903  0.04833916     0.93200
C108        C  0.81698763  0.02727780  0.95113143     0.92300
C109        C  0.81689990  0.97504769  0.99567516     0.84500
C110        C  0.81822539  0.07189988  0.00369030     0.90700
N111        N  0.81119041  0.02123132  0.11574803    -0.27400
N112        N  0.83491076  0.01734262  0.11241245    -0.35200
C113        C  0.83989189  0.01612345  0.08835647     0.01000
C114        C  0.81836650  0.01926587  0.07543042     0.07000
C115        C  0.80031927  0.02249517  0.09334688    -0.06100
H116        H  0.85811115  0.01355899  0.08081106     0.07700
H117        H  0.78098493  0.02598296  0.09031478     0.08900
Cu118      Cu  0.86065438  0.01513615  0.13982605     0.44200
Cu119      Cu  0.79722680  0.02503931  0.15168685     0.42000
Cu120      Cu  0.84794327  0.02621181  0.20072012     0.43900
N121        N  0.88801297  0.01685495  0.16567868    -0.34800
N122        N  0.88399371  0.02142303  0.18912763    -0.29000
C123        C  0.90587599  0.02305157  0.20084467    -0.05100
C124        C  0.92431540  0.01947203  0.18351730     0.07100
C125        C  0.91218583  0.01555037  0.16157314     0.00900
H126        H  0.90817542  0.02732449  0.22013802     0.08500
H127        H  0.92036575  0.01269874  0.14366035     0.07600
N128        N  0.81021481  0.02809361  0.20665017    -0.36200
N129        N  0.79227618  0.02723096  0.19012597    -0.28400
C130        C  0.77057302  0.02738776  0.20219867    -0.03600
C131        C  0.77510198  0.02855398  0.22733843     0.05000
C132        C  0.80041378  0.02900234  0.22926526     0.03100
H133        H  0.75281513  0.02654804  0.19329699     0.08200
H134        H  0.81116850  0.02909100  0.24598431     0.07000
N135        N  0.88527825  0.21323651  0.00905549    -0.27400
N136        N  0.88955649  0.18973457  0.01348351    -0.35200
C137        C  0.91377287  0.18557504  0.01342203     0.01000
C138        C  0.92580427  0.20737222  0.00871996     0.07000
C139        C  0.90719337  0.22476149  0.00611253    -0.06100
H140        H  0.92202031  0.16763475  0.01581793     0.07700
H141        H  0.90938115  0.24401902  0.00163239     0.08900
Cu142      Cu  0.86331353  0.16269851  0.01634978     0.44200
Cu143      Cu  0.84893285  0.22619129  0.00617810     0.42000
Cu144      Cu  0.80182127  0.17484240  0.00518128     0.43900
N145        N  0.83800386  0.13494714  0.01206453    -0.34800
N146        N  0.81455927  0.13895422  0.00746899    -0.29000
C147        C  0.80315842  0.11712186  0.00412398    -0.05100
C148        C  0.82060065  0.09868338  0.00661004     0.07100
C149        C  0.84238623  0.11074161  0.01162964     0.00900
H150        H  0.78391789  0.11490419  0.99963417     0.08500
H151        H  0.86030470  0.10253731  0.01427248     0.07600
N152        N  0.79434448  0.21232558  0.00486442    -0.36200
N153        N  0.81044796  0.23062471  0.00516802    -0.28400
C154        C  0.79793037  0.25205899  0.00501875    -0.03600
C155        C  0.77282765  0.24703691  0.00464141     0.05000
C156        C  0.77150145  0.22160030  0.00454723     0.03100
H157        H  0.80656671  0.26996660  0.00530288     0.08200
H158        H  0.75514788  0.21033427  0.00416511     0.07000
O159        O  0.00117578  0.06433819  0.79668005    -0.73000
O160        O  0.00245386  0.98928350  0.79706678    -0.74000
O161        O  0.96432519  0.02629392  0.79637166    -0.62600
O162        O  0.03928838  0.02734511  0.79796678    -0.71000
O163        O  0.03720580  0.02769160  0.83873779    -0.70600
O164        O  0.96489661  0.02641280  0.83719121    -0.61800
O165        O  0.00199050  0.99047364  0.83785232    -0.74400
O166        O  0.00004011  0.06357583  0.83746633    -0.73100
Cu167      Cu  0.00185138  0.02680530  0.79541110     1.04600
Cu168      Cu  0.00101135  0.02703841  0.83904767     1.04300
C169        C  0.00003297  0.07561206  0.81731085     0.93200
C170        C  0.00271855  0.97821810  0.81784477     0.92300
C171        C  0.95301093  0.02654204  0.81702874     0.84500
C172        C  0.04983093  0.02739349  0.81903601     0.90700
N173        N  0.99900272  0.14300685  0.81204701    -0.27400
N174        N  0.99331246  0.13931231  0.83537752    -0.35200
C175        C  0.99269086  0.11519613  0.84010361     0.01000
C176        C  0.99812986  0.10262253  0.81881871     0.07000
C177        C  0.00194370  0.12078770  0.80115027    -0.06100
H178        H  0.98898162  0.10738033  0.85802985     0.07700
H179        H  0.00710501  0.11807678  0.78213198     0.08900
Cu180      Cu  0.98863312  0.16620336  0.86133887     0.44200
Cu181      Cu  0.00345685  0.17903840  0.79860903     0.42000
Cu182      Cu  0.00302854  0.22664345  0.84999525     0.43900
N183        N  0.99033174  0.19159175  0.88911228    -0.34800
N184        N  0.99644338  0.21475921  0.88554366    -0.29000
C185        C  0.99857103  0.22601294  0.90759586    -0.05100
C186        C  0.99366037  0.20868678  0.92568976     0.07100
C187        C  0.98847613  0.18720569  0.91321925     0.00900
H188        H  0.00443576  0.24483688  0.91024555     0.08500
H189        H  0.98482853  0.16930751  0.92112148     0.07600
N190        N  0.00606847  0.23354081  0.81262225    -0.36200
N191        N  0.00609702  0.21747902  0.79428243    -0.28400
C192        C  0.00756123  0.23008049  0.77291049    -0.03600
C193        C  0.00853158  0.25513585  0.77810574     0.05000
C194        C  0.00748849  0.25637096  0.80348301     0.03100
H195        H  0.00779405  0.22156648  0.75494226     0.08200
H196        H  0.00723683  0.27268711  0.81480805     0.07000
N197        N  0.19112110  0.02290766  0.88738138    -0.27400
N198        N  0.16736885  0.01983408  0.89133842    -0.35200
C199        C  0.16303099  0.01870835  0.91549572     0.01000
C200        C  0.18498312  0.02123313  0.92784641     0.07000
C201        C  0.20264910  0.02382817  0.90947308    -0.06100
H202        H  0.14490928  0.01701888  0.92352221     0.07700
H203        H  0.22213141  0.02690942  0.91197818     0.08900
Cu204      Cu  0.14052936  0.01976477  0.86488686     0.44200
Cu205      Cu  0.20423023  0.02679961  0.85121787     0.42000
Cu206      Cu  0.15278298  0.02884250  0.80346587     0.43900
N207        N  0.11288589  0.02328252  0.83950503    -0.34800
N208        N  0.11690098  0.02666516  0.81585197    -0.29000
C209        C  0.09507889  0.02863132  0.80416144    -0.05100
C210        C  0.07666007  0.02653065  0.82168448     0.07100
C211        C  0.08869725  0.02317358  0.84377833     0.00900
H212        H  0.09283812  0.03161605  0.78461964     0.08500
H213        H  0.08047110  0.02084494  0.86174944     0.07600
N214        N  0.19023618  0.03049397  0.79668350    -0.36200
N215        N  0.20847954  0.02980699  0.81283802    -0.28400
C216        C  0.22991519  0.03121903  0.80041651    -0.03600
C217        C  0.22489887  0.03294317  0.77538221     0.05000
C218        C  0.19953324  0.03235967  0.77393762     0.03100
H219        H  0.24780601  0.03105860  0.80906824     0.08200
H220        H  0.18832820  0.03292778  0.75754381     0.07000
O221        O  0.20753811  0.02440352  0.96599974    -0.73000
O222        O  0.20692507  0.02917452  0.04107929    -0.74000
O223        O  0.20715157  0.98921272  0.00580928    -0.62600
O224        O  0.20690197  0.06412578  0.00111491    -0.71000
O225        O  0.16616661  0.06254600  0.99952887    -0.70600
O226        O  0.16640728  0.99059537  0.00690995    -0.61800
O227        O  0.16620041  0.03034456  0.03956603    -0.74400
O228        O  0.16680409  0.02296849  0.96701210    -0.73100
Cu229      Cu  0.20877142  0.02671144  0.00354558     1.04600
Cu230      Cu  0.16518489  0.02658008  0.00327244     1.04300
C231        C  0.18685616  0.02288575  0.95486042     0.93200
C232        C  0.18610679  0.03089980  0.05193904     0.92300
C233        C  0.18630832  0.97831724  0.00714512     0.84500
C234        C  0.18604969  0.07487515  0.99920370     0.90700
O235        O  0.99856894  0.05913538  0.16539155    -0.73000
O236        O  0.00077272  0.98644439  0.16639624    -0.74000
O237        O  0.96350456  0.02131841  0.16579438    -0.62600
O238        O  0.03606977  0.02432716  0.16563062    -0.71000
O239        O  0.03729069  0.02447076  0.20642675    -0.70600
O240        O  0.96216695  0.02212379  0.20657524    -0.61800
O241        O  0.00073807  0.98577997  0.20720909    -0.74400
O242        O  0.99870189  0.06077065  0.20617352    -0.73100
Cu243      Cu  0.99974487  0.02277163  0.16458444     1.04600
Cu244      Cu  0.99974291  0.02329606  0.20822255     1.04300
C245        C  0.99854391  0.07158405  0.18525774     0.93200
C246        C  0.00063023  0.97447718  0.18656215     0.92300
C247        C  0.95122090  0.02111288  0.18573181     0.84500
C248        C  0.04829033  0.02517529  0.18559691     0.90700
O249        O  0.96365114  0.23016992  0.00400039    -0.73000
O250        O  0.03858111  0.23033811  0.99831832    -0.74000
O251        O  0.99830865  0.23086093  0.96373532    -0.62600
O252        O  0.00391211  0.22927858  0.03845241    -0.71000
O253        O  0.00545161  0.18855375  0.03626509    -0.70600
O254        O  0.99682487  0.19007848  0.96434261    -0.61800
O255        O  0.03747948  0.18962660  0.99601123    -0.74400
O256        O  0.96493911  0.18940832  0.00467143    -0.73100
Cu257      Cu  0.00113096  0.23178265  0.00114048     1.04600
Cu258      Cu  0.00118876  0.18818373  0.00027255     1.04300
C259        C  0.95268822  0.20938261  0.00559214     0.93200
C260        C  0.04965772  0.20968846  0.99612848     0.92300
C261        C  0.99638161  0.21026186  0.95249012     0.84500
C262        C  0.00564780  0.20825066  0.04891059     0.90700
N263        N  0.99925768  0.13895323  0.18913421    -0.27400
N264        N  0.00234229  0.13488919  0.16538832    -0.35200
C265        C  0.00212420  0.11072517  0.16100060     0.01000
C266        C  0.99897568  0.09854321  0.18297446     0.07000
C267        C  0.99724256  0.11695750  0.20065264    -0.06100
H268        H  0.00439655  0.10259720  0.14297828     0.07700
H269        H  0.99466627  0.11456837  0.22023430     0.08900
Cu270      Cu  0.00695444  0.16135561  0.13901117     0.44200
Cu271      Cu  0.99766002  0.17506367  0.20256938     0.42000
Cu272      Cu  0.99880529  0.22299487  0.15172230     0.43900
N273        N  0.00811359  0.18742365  0.11188165    -0.34800
N274        N  0.00439825  0.21101078  0.11595322    -0.29000
C275        C  0.00391481  0.22293159  0.09415568    -0.05100
C276        C  0.00746906  0.20565921  0.07571055     0.07100
C277        C  0.01012750  0.18346296  0.08770898     0.00900
H278        H  0.00020472  0.24233599  0.09188419     0.08500
H279        H  0.01218023  0.16549350  0.07941886     0.07600
N280        N  0.99603224  0.22971128  0.18924074    -0.36200
N281        N  0.99590459  0.21336482  0.20733068    -0.28400
C282        C  0.99489599  0.22555921  0.22892855    -0.09600
C283        C  0.99446870  0.25069378  0.22421607     0.05000
C284        C  0.99510646  0.25240606  0.19882308     0.03100
H285        H  0.99497701  0.21671033  0.24673948     0.08200
H286        H  0.99511713  0.26894854  0.18780863     0.07000
N287        N  0.18980617  0.03360449  0.11936348    -0.27400
N288        N  0.16623992  0.03760029  0.11514998    -0.35200
C289        C  0.16208795  0.03781478  0.09091112     0.01000
C290        C  0.18398410  0.03372225  0.07884604     0.07000
C291        C  0.20140189  0.03122150  0.09743570    -0.06100
H292        H  0.14410306  0.03985280  0.08266843     0.07700
H293        H  0.22071605  0.02707803  0.09522345     0.08900
Cu294      Cu  0.13931769  0.03906760  0.14161000     0.44200
Cu295      Cu  0.20258849  0.02991926  0.15558753     0.42000
Cu296      Cu  0.15134570  0.02428131  0.20274184     0.43900
N297        N  0.11159805  0.03340222  0.16667301    -0.34800
N298        N  0.11544743  0.02759623  0.18990579    -0.29000
C299        C  0.09348606  0.02405277  0.20102045    -0.05100
C300        C  0.07516811  0.02759856  0.18357981     0.07100
C301        C  0.08742713  0.03347512  0.16213343     0.00900
H302        H  0.09108487  0.01874747  0.22004455     0.08500
H303        H  0.07936058  0.03721840  0.14433133     0.07600
N304        N  0.18898077  0.02411450  0.20999989    -0.36200
N305        N  0.20707312  0.02657647  0.19383233    -0.28400
C306        C  0.22861631  0.02688912  0.20611758    -0.03600
C307        C  0.22391768  0.02435511  0.23109695     0.05000
C308        C  0.19858964  0.02262385  0.23270784     0.03100
H309        H  0.24639124  0.02887687  0.19743651     0.08200
H310        H  0.18770339  0.02114880  0.24927971     0.07000
N311        N  0.11701476  0.21470583  0.99482383    -0.27400
N312        N  0.11332765  0.19112053  0.99034884    -0.35200
C313        C  0.08919720  0.18644675  0.98963044     0.01000
C314        C  0.07663362  0.20803881  0.99379065     0.07000
C315        C  0.09482405  0.22579086  0.99698256    -0.06100
H316        H  0.08136232  0.16833817  0.98702928     0.07700
H317        H  0.09214096  0.24500948  0.00132839     0.08900
Cu318      Cu  0.14039827  0.16499344  0.98797917     0.44200
Cu319      Cu  0.15297877  0.22829086  0.99900863     0.42000
Cu320      Cu  0.20114738  0.17775637  0.00206342     0.43900
N321        N  0.16617323  0.13774454  0.99169962    -0.34800
N322        N  0.18933979  0.14188990  0.99744085    -0.29000
C323        C  0.20091909  0.12011698  0.00036986    -0.05100
C324        C  0.18382687  0.10160302  0.99639076     0.07100
C325        C  0.16212401  0.11352317  0.99093465     0.00900
H326        H  0.21990847  0.11797943  0.00585247     0.08500
H327        H  0.14439046  0.10520175  0.98745356     0.07600
N328        N  0.20755819  0.21528920  0.00379522    -0.36200
N329        N  0.19122193  0.23331482  0.00242766    -0.28400
C330        C  0.20338534  0.25495374  0.00335475    -0.03600
C331        C  0.22842075  0.25026854  0.00553640     0.05000
C332        C  0.23015833  0.22491594  0.00570215     0.03100
H333        H  0.19459681  0.27276131  0.00249780     0.08200
H334        H  0.24671782  0.21398099  0.00652522     0.07000
O335        O  0.99862590  0.82045120  0.03872192    -0.73000
O336        O  0.00313853  0.82127738  0.96398819    -0.74000
O337        O  0.03824288  0.82143971  0.00347629    -0.62600
O338        O  0.96327582  0.81993010  0.99889085    -0.71000
O339        O  0.96351777  0.86070242  0.99779528    -0.70600
O340        O  0.03638395  0.86213895  0.00539301    -0.61800
O341        O  0.00368404  0.86205703  0.96573045    -0.74400
O342        O  0.99617226  0.86117644  0.03790708    -0.73100
Cu343      Cu  0.00081942  0.81917841  0.00129918     1.04600
Cu344      Cu  0.99989046  0.86277320  0.00176536     1.04300
C345        C  0.99657198  0.84106451  0.04991014     0.93200
C346        C  0.00449574  0.84222141  0.95332637     0.92300
C347        C  0.04897067  0.84233389  0.00514193     0.84500
C348        C  0.95177630  0.84038785  0.99705228     0.90700
N349        N  0.00117501  0.90715939  0.19113620    -0.27400
N350        N  0.99488400  0.91097210  0.16798915    -0.35200
C351        C  0.99374245  0.93509661  0.16357508     0.01000
C352        C  0.99944007  0.94750570  0.18488669     0.07000
C353        C  0.00397145  0.92927509  0.20226100    -0.06100
H354        H  0.98942767  0.94304460  0.14584619     0.07700
H355        H  0.00948659  0.93186523  0.22119882     0.08900
Cu356      Cu  0.99009281  0.88434129  0.14177550     0.44200
Cu357      Cu  0.00652729  0.87123189  0.20392140     0.42000
Cu358      Cu  0.00682843  0.82406476  0.15219008     0.43900
N359        N  0.99211145  0.85934245  0.11365670    -0.34800
N360        N  0.99896936  0.83633297  0.11687784    -0.29000
C361        C  0.00072121  0.82532735  0.09466645    -0.05100
C362        C  0.99478632  0.84261070  0.07682966     0.07100
C363        C  0.98945289  0.86386105  0.08962168     0.00900
H364        H  0.00692302  0.80667174  0.09169552     0.08500
H365        H  0.98500621  0.88167866  0.08196515     0.07600
N366        N  0.01070162  0.81693705  0.18958843    -0.36200
N367        N  0.01010171  0.83302531  0.20790850    -0.28400
C368        C  0.01155370  0.82062151  0.22934701    -0.03600
C369        C  0.01329103  0.79566133  0.22428421     0.05000
C370        C  0.01271666  0.79417894  0.19890322     0.03100
H371        H  0.01119621  0.82919522  0.24728839     0.08200
H372        H  0.01284257  0.77766428  0.18783478     0.07000
N373        N  0.11647318  0.83820838  0.00540405    -0.27400
N374        N  0.11260038  0.86190893  0.00897784    -0.35200
C375        C  0.08842452  0.86636358  0.00978075     0.01000
C376        C  0.07600573  0.84449249  0.00663240     0.07000
C377        C  0.09435058  0.82682809  0.00389328    -0.06100
H378        H  0.08044979  0.88444433  0.01203031     0.07700
H379        H  0.09179951  0.80738904  0.00054158     0.08900
Cu380      Cu  0.13965242  0.88812176  0.01121880     0.44200
Cu381      Cu  0.15266999  0.82482235  0.00212623     0.42000
Cu382      Cu  0.20132168  0.87532564  0.00092731     0.43900
N383        N  0.16589310  0.91521179  0.01024887    -0.34800
N384        N  0.18939390  0.91117533  0.00599703    -0.29000
C385        C  0.20124694  0.93302193  0.00498684    -0.05100
C386        C  0.18400270  0.95145214  0.00875137     0.07100
C387        C  0.16193284  0.93937905  0.01202193     0.00900
H388        H  0.22058669  0.93531147  0.00097701     0.08500
H389        H  0.14402813  0.94761074  0.01466588     0.07600
N390        N  0.20753448  0.83770876  0.99858988    -0.36200
N391        N  0.19104151  0.81974659  0.99948845    -0.28400
C392        C  0.20307207  0.79804779  0.99843574    -0.03600
C393        C  0.22814959  0.80262145  0.99656922     0.05000
C394        C  0.23009545  0.82795233  0.99676026     0.03100
H395        H  0.19417757  0.78026065  0.99886748     0.08200
H396        H  0.24680317  0.83872168  0.99622359     0.07000
N397        N  0.00463591  0.91075072  0.81318989    -0.27400
N398        N  0.00841417  0.91468073  0.83685261    -0.35200
C399        C  0.00829073  0.93882057  0.84146148     0.01000
C400        C  0.00436201  0.95120072  0.81972923     0.07000
C401        C  0.00218406  0.93286744  0.80194190    -0.06100
H402        H  0.01068941  0.94678497  0.85954136     0.07700
H403        H  0.99870239  0.93540084  0.78251975     0.08900
Cu404      Cu  0.01223626  0.88788193  0.86295380     0.44200
Cu405      Cu  0.00258072  0.87442388  0.79987079     0.42000
Cu406      Cu  0.00465742  0.82598037  0.85056167     0.43900
N407        N  0.01066444  0.86217168  0.89034908    -0.34800
N408        N  0.00739608  0.83849583  0.88638217    -0.29000
C409        C  0.00523237  0.82690959  0.90825229    -0.05100
C410        C  0.00713351  0.84452966  0.92660334     0.07100
C411        C  0.01059809  0.86654823  0.91451634     0.00900
H412        H  0.00175874  0.80745770  0.91055320     0.08500
H413        H  0.01218831  0.88463360  0.92265878     0.07600
N414        N  0.00288909  0.81949043  0.81303442    -0.36200
N415        N  0.00217975  0.83592161  0.79502146    -0.28400
C416        C  0.00149933  0.82372935  0.77339733    -0.03600
C417        C  0.00173088  0.79856735  0.77805265     0.05000
C418        C  0.00265594  0.79680081  0.80340321     0.03100
H419        H  0.00083502  0.83260399  0.75561127     0.08200
H420        H  0.00350293  0.78022314  0.81434043     0.07000
N421        N  0.81185329  0.02889053  0.88376285    -0.27400
N422        N  0.83547476  0.03300752  0.88749074    -0.35200
C423        C  0.84018029  0.03352233  0.91160617     0.01000
C424        C  0.81857498  0.02956542  0.92415754     0.07000
C425        C  0.80074014  0.02676153  0.90596967    -0.06100
H426        H  0.85832142  0.03584627  0.91942595     0.07700
H427        H  0.78146286  0.02269563  0.90866048     0.08900
Cu428      Cu  0.86166560  0.03497760  0.86061199     0.44200
Cu429      Cu  0.79859425  0.02511981  0.84764573     0.42000
Cu430      Cu  0.85017536  0.02303352  0.79965405     0.43900
N431        N  0.88953568  0.03136153  0.83565827    -0.34800
N432        N  0.88597500  0.02664705  0.81216718    -0.29000
C433        C  0.90806678  0.02437923  0.80100616    -0.05100
C434        C  0.92611819  0.02765129  0.81876953     0.07100
C435        C  0.91360349  0.03203023  0.84038150     0.00900
H436        H  0.91073694  0.02020674  0.78174022     0.08500
H437        H  0.92142126  0.03520619  0.85840560     0.07600
N438        N  0.81261046  0.02138474  0.79305988    -0.36200
N439        N  0.79439350  0.02226841  0.80925298    -0.28400
C440        C  0.77291118  0.02118563  0.79687620    -0.03600
C441        C  0.77786070  0.01943022  0.77185119     0.05000
C442        C  0.80321926  0.01967199  0.77033456     0.03100
H443        H  0.75502741  0.02158328  0.80554015     0.08200
H444        H  0.81432992  0.01911633  0.75386496     0.07000
N445        N  0.88451133  0.83451979  0.99425500    -0.27400
N446        N  0.88806934  0.85768575  0.98782481    -0.35200
C447        C  0.91219237  0.86250668  0.98729517     0.01000
C448        C  0.92485408  0.84149080  0.99364175     0.07000
C449        C  0.90674212  0.82386831  0.99780734    -0.06100
H450        H  0.91994238  0.88044737  0.98353852     0.07700
H451        H  0.90947141  0.80519060  0.00407544     0.08900
Cu452      Cu  0.86089401  0.88373185  0.98372105     0.44200
Cu453      Cu  0.84874264  0.82112130  0.00006665     0.42000
Cu454      Cu  0.80119065  0.87225643  0.00229312     0.43900
N455        N  0.83559534  0.91162130  0.98778624    -0.34800
N456        N  0.81283687  0.90789671  0.99522732    -0.29000
C457        C  0.80169594  0.92988865  0.99837074    -0.05100
C458        C  0.81863061  0.94817591  0.99281380     0.07100
C459        C  0.83980600  0.93582247  0.98618270     0.00900
H460        H  0.78322883  0.93235943  0.00530341     0.08500
H461        H  0.85738920  0.94387090  0.98150778     0.07600
N462        N  0.79453517  0.83485718  0.00633760    -0.36200
N463        N  0.81068236  0.81664441  0.00525807    -0.28400
C464        C  0.79841445  0.79516241  0.00739334    -0.03600
C465        C  0.77347156  0.80010999  0.00998054     0.05000
C466        C  0.77192489  0.82548212  0.00923599     0.03100
H467        H  0.80705980  0.77727837  0.00678283     0.08200
H468        H  0.75546457  0.83657692  0.00985563     0.07000
N469        N  0.00473398  0.48949430  0.64010999    -0.27400
N470        N  0.00368172  0.47721699  0.61918358    -0.35200
C471        C  0.00443237  0.45299001  0.62395803     0.01000
C472        C  0.00606658  0.44962053  0.64921687     0.07000
C473        C  0.00621180  0.47332908  0.65880543    -0.06100
H474        H  0.00386142  0.43897740  0.60988161     0.07700
H475        H  0.00729899  0.47860727  0.67793874     0.08900
Cu476      Cu  0.00179940  0.49375357  0.58491103     0.44200
Cu477      Cu  0.00404663  0.52772775  0.64202662     0.42000
Cu478      Cu  0.00178492  0.56022133  0.58364894     0.43900
N479        N  0.00191951  0.51422354  0.55278333    -0.34800
N480        N  0.00203026  0.53852619  0.55228674    -0.29000
C481        C  0.00234317  0.54609845  0.52873798    -0.05100
C482        C  0.00241828  0.52555442  0.51374290     0.07100
C483        C  0.00216233  0.50567239  0.52958455     0.00900
H484        H  0.00247288  0.56514769  0.52300612     0.08500
H485        H  0.00214240  0.48640006  0.52466566     0.07600
N486        N  0.00200874  0.57763897  0.61758226    -0.36200
N487        N  0.00291256  0.56586557  0.63882126    -0.28400
C488        C  0.00310363  0.58245150  0.65716738    -0.03600
C489        C  0.00229189  0.60591679  0.64707008     0.05000
C490        C  0.00158456  0.60199146  0.62184896     0.03100
H491        H  0.00376787  0.57760418  0.67643611     0.08200
H492        H  0.00105473  0.61573146  0.60748958     0.07000
N493        N  0.00327379  0.48444455  0.36138569    -0.27400
N494        N  0.00269941  0.47289908  0.38276919    -0.35200
C495        C  0.00186140  0.44851208  0.37880101     0.01000
C496        C  0.00189075  0.44424230  0.35362754     0.07000
C497        C  0.00282984  0.46760885  0.34323362    -0.06100
H498        H  0.00110698  0.43499536  0.39335719     0.07700
H499        H  0.00297539  0.47221435  0.32389579     0.08900
Cu500      Cu  0.00266293  0.49045964  0.41664894     0.44200
Cu501      Cu  0.00408209  0.52268624  0.35786701     0.42000
Cu502      Cu  0.00220141  0.55643727  0.41546704     0.43900
N503        N  0.00252739  0.51195518  0.44816123    -0.34800
N504        N  0.00227005  0.53624308  0.44766749    -0.29000
C505        C  0.00226562  0.54482613  0.47085294    -0.05100
C506        C  0.00251692  0.52495116  0.48670301     0.07100
C507        C  0.00268249  0.50439440  0.47171405     0.00900
H508        H  0.00208006  0.56410345  0.47575209     0.08500
H509        H  0.00287788  0.48535014  0.47745563     0.07600
N510        N  0.00352893  0.57305223  0.38130317    -0.36200
N511        N  0.00422393  0.56102002  0.36020051    -0.28400
C512        C  0.00529143  0.57748385  0.34171118    -0.03600
C513        C  0.00538441  0.60101637  0.35169549     0.05000
C514        C  0.00421322  0.59733569  0.37687480     0.03100
H515        H  0.00631752  0.57259699  0.32246059     0.08200
H516        H  0.00379389  0.61122588  0.39109321     0.07000
C517        C  0.00244345  0.62989381  0.66030650    -0.03400
C518        C  0.99905065  0.65217745  0.64750713    -0.09200
C519        C  0.99922430  0.67467786  0.66002466    -0.16900
C520        C  0.00279998  0.67529625  0.68549834     0.25300
C521        C  0.00620736  0.65329413  0.69838886    -0.18500
C522        C  0.00603808  0.63079373  0.68594072    -0.07400
C523        C  0.00274979  0.69836752  0.69858893    -0.13900
C524        C  0.00254637  0.71689027  0.71083542    -0.13600
C525        C  0.00202818  0.73767778  0.72730347     0.25200
C526        C  0.99726732  0.73382624  0.75226241    -0.19000
C527        C  0.99695216  0.75362728  0.76859441    -0.07500
C528        C  0.00145562  0.77775513  0.76028321    -0.03600
C529        C  0.00601762  0.78152148  0.73507099    -0.08900
C530        C  0.00633774  0.76158633  0.71870228    -0.16500
H531        H  0.99611211  0.65235524  0.62784217     0.11600
H532        H  0.99650202  0.69157791  0.64983318     0.10900
H533        H  0.00898361  0.65351731  0.71812196     0.10800
H534        H  0.00884078  0.61418929  0.69650239     0.11400
H535        H  0.99381992  0.71544398  0.75914952     0.11400
H536        H  0.99303893  0.74988375  0.78772643     0.11400
H537        H  0.00965750  0.79976353  0.72801241     0.11500
H538        H  0.01005658  0.76480872  0.69939637     0.10400
C539        C  0.01415678  0.77470238  0.24175420    -0.03400
C540        C  0.00585531  0.77720895  0.26613898    -0.09200
C541        C  0.00539579  0.75684014  0.28194637    -0.16900
C542        C  0.01338973  0.73381320  0.27361911     0.25300
C543        C  0.02216642  0.73133470  0.24958521    -0.18500
C544        C  0.02254803  0.75156971  0.23377913    -0.07400
C545        C  0.01204474  0.71244453  0.28926323    -0.13900
C546        C  0.01086362  0.69361673  0.30097236    -0.13600
C547        C  0.00940531  0.67043564  0.31377109     0.25200
C548        C  0.00293514  0.64904765  0.30097564    -0.19000
C549        C  0.00166482  0.62645656  0.31324455    -0.07500
C550        C  0.00678232  0.62494222  0.33856015    -0.03600
C551        C  0.01324680  0.64658304  0.35125811    -0.08900
C552        C  0.01457841  0.66912965  0.33893403    -0.16500
H553        H  0.99914583  0.79470327  0.27281896     0.11600
H554        H  0.99851949  0.75898037  0.30051831     0.10900
H555        H  0.02847622  0.71364858  0.24294222     0.10800
H556        H  0.02939111  0.74901017  0.21527774     0.11400
H557        H  0.99886828  0.64982796  0.28148439     0.11400
H558        H  0.99644917  0.61027016  0.30291847     0.11400
H559        H  0.01756543  0.64614544  0.37067128     0.11500
H560        H  0.01969558  0.68552658  0.34903022     0.10400
C561        C  0.00062922  0.42004424  0.34075802    -0.03400
C562        C  0.00049393  0.41878862  0.31488402    -0.09200
C563        C  0.99896175  0.39609788  0.30283276    -0.16900
C564        C  0.99754858  0.37423816  0.31635587     0.25300
C565        C  0.99780836  0.37520478  0.34206365    -0.18500
C566        C  0.99934116  0.39788288  0.35417791    -0.07400
C567        C  0.99596523  0.35093496  0.30371034    -0.13900
C568        C  0.99500279  0.33225540  0.29170656    -0.13600
C569        C  0.99457653  0.31149185  0.27516321     0.25200
C570        C  0.98978253  0.28762951  0.28367571    -0.19000
C571        C  0.98971007  0.26774088  0.26721393    -0.07500
C572        C  0.99438423  0.27151002  0.24200751    -0.03600
C573        C  0.99914489  0.29561072  0.23378177    -0.08900
C574        C  0.99922464  0.31533972  0.25018879    -0.16500
H575        H  0.00150148  0.43527031  0.30381391     0.11600
H576        H  0.99884840  0.39561773  0.28291093     0.10900
H577        H  0.99679438  0.35843051  0.35276897     0.10800
H578        H  0.99943824  0.39790509  0.37405599     0.11400
H579        H  0.98613842  0.28439109  0.30299373     0.11400
H580        H  0.98587061  0.24951987  0.27422391     0.11400
H581        H  0.00311196  0.29940156  0.21467869     0.11500
H582        H  0.00303346  0.33367078  0.24335739     0.10400
C583        C  0.00725641  0.42585989  0.66282808    -0.03400
C584        C  0.00844715  0.42538113  0.68870661    -0.09200
C585        C  0.00930247  0.40299426  0.70139969    -0.16900
C586        C  0.00900019  0.38072616  0.68848874     0.25300
C587        C  0.00793459  0.38096579  0.66280242    -0.18500
C588        C  0.00708055  0.40330057  0.65006584    -0.07400
C589        C  0.00961660  0.35767613  0.70161683    -0.13900
C590        C  0.00998840  0.33883237  0.71336945    -0.13600
C591        C  0.01031358  0.31747956  0.72911247     0.25200
C592        C  0.00642664  0.29382700  0.71962607    -0.19000
C593        C  0.00614793  0.27338818  0.73539444    -0.07500
C594        C  0.00970238  0.27639758  0.76087279    -0.03600
C595        C  0.01396463  0.30027050  0.77002387    -0.08900
C596        C  0.01420845  0.32055246  0.75430772    -0.16500
H597        H  0.00863813  0.44221887  0.69926723     0.11600
H598        H  0.01012892  0.40306275  0.72130982     0.10900
H599        H  0.00769884  0.36386484  0.65258577     0.10800
H600        H  0.00622796  0.40272257  0.63022009     0.11400
H601        H  0.00340125  0.29120574  0.70011161     0.11400
H602        H  0.00279758  0.25536951  0.72765947     0.11400
H603        H  0.01715021  0.30350344  0.78936432     0.11500
H604        H  0.01732519  0.33872128  0.76188113     0.10400
C605        C  0.34048482  0.03495715  0.60535421    -0.03400
C606        C  0.31465796  0.03350803  0.60621400    -0.09200
C607        C  0.30227191  0.03372107  0.62876071    -0.16900
C608        C  0.31544226  0.03538349  0.65080720     0.25300
C609        C  0.34109580  0.03675537  0.65020885    -0.18500
C610        C  0.35353670  0.03654175  0.62768964    -0.07400
C611        C  0.30254154  0.03574824  0.67395849    -0.13900
C612        C  0.29066451  0.03599379  0.69270348    -0.13600
C613        C  0.27465668  0.03609558  0.71381971     0.25200
C614        C  0.28375398  0.03135374  0.73745456    -0.19000
C615        C  0.26771696  0.03063997  0.75763589    -0.07500
C616        C  0.24235432  0.03460667  0.75438090    -0.03600
C617        C  0.23358612  0.03977551  0.73054802    -0.08900
C618        C  0.24958514  0.04046338  0.71050548    -0.16500
H619        H  0.30391396  0.03210495  0.58954631     0.11600
H620        H  0.28239047  0.03260134  0.62898879     0.10900
H621        H  0.35149931  0.03806016  0.66714979     0.10800
H622        H  0.37336160  0.03780118  0.62790766     0.11400
H623        H  0.30316540  0.02794887  0.74024663     0.11400
H624        H  0.27515830  0.02659642  0.77563432     0.11400
H625        H  0.21434099  0.04329355  0.72717378     0.11500
H626        H  0.24232642  0.04423278  0.69233050     0.10400
C627        C  0.33960624  0.03106109  0.40105910    -0.03400
C628        C  0.35268408  0.03281229  0.37875426    -0.09200
C629        C  0.34028415  0.03272468  0.35619012    -0.16900
C630        C  0.31464398  0.03086703  0.35553254     0.25300
C631        C  0.30146242  0.02930527  0.37759028    -0.18500
C632        C  0.31380634  0.02943346  0.40017061    -0.07400
C633        C  0.30176720  0.03013781  0.33232990    -0.13900
C634        C  0.28985411  0.02899674  0.31360942    -0.13600
C635        C  0.27394404  0.02708150  0.29244659     0.25200
C636        C  0.25070124  0.01639893  0.29505150    -0.19000
C637        C  0.23467572  0.01517103  0.27500513    -0.07500
C638        C  0.24163054  0.02458958  0.25191519    -0.03600
C639        C  0.26524863  0.03485103  0.24928332    -0.08900
C640        C  0.28126223  0.03616491  0.26946083    -0.16500
H641        H  0.37250181  0.03434643  0.37863061     0.11600
H642        H  0.35071378  0.03399194  0.33926287     0.10900
H643        H  0.28160722  0.02780848  0.37733837     0.10800
H644        H  0.30309497  0.02790196  0.41685859     0.11400
H645        H  0.24484504  0.00919827  0.31268912     0.11400
H646        H  0.21681569  0.00683076  0.27766624     0.11400
H647        H  0.27115163  0.04238078  0.23182992     0.11500
H648        H  0.29921397  0.04448934  0.26719328     0.10400
C649        C  0.66237799  0.01786547  0.60177869    -0.03400
C650        C  0.64955983  0.02096216  0.62408568    -0.09200
C651        C  0.66212178  0.02133326  0.64652423    -0.16900
C652        C  0.68766267  0.01863652  0.64706487     0.25300
C653        C  0.70063052  0.01574331  0.62502477    -0.18500
C654        C  0.68811787  0.01537332  0.60254780    -0.07400
C655        C  0.70060629  0.01861899  0.67018371    -0.13900
C656        C  0.71239921  0.01833623  0.68897512    -0.13600
C657        C  0.72825481  0.01778367  0.71018863     0.25200
C658        C  0.75291597  0.01133065  0.70721502    -0.19000
C659        C  0.76882437  0.01147878  0.72733729    -0.07500
C660        C  0.76037170  0.01817456  0.75088499    -0.03600
C661        C  0.73538280  0.02417699  0.75384212    -0.08900
C662        C  0.71943461  0.02402429  0.73357862    -0.16500
H663        H  0.62982460  0.02317160  0.62434566     0.11600
H664        H  0.65188739  0.02365330  0.66345803     0.10900
H665        H  0.72042808  0.01363420  0.62521573     0.10800
H666        H  0.69865543  0.01286352  0.58588008     0.11400
H667        H  0.75993433  0.00634600  0.68924300     0.11400
H668        H  0.78776578  0.00632991  0.72429107     0.11400
H669        H  0.72823868  0.02945488  0.77164240     0.11500
H670        H  0.70033521  0.02902880  0.73610368     0.10400
C671        C  0.75737103  0.02806068  0.24812163    -0.03400
C672        C  0.73347747  0.01857903  0.24519317    -0.09200
C673        C  0.71751211  0.01692746  0.26539767    -0.16900
C674        C  0.72517885  0.02490291  0.28868603     0.25300
C675        C  0.74874414  0.03473350  0.29160681    -0.18500
C676        C  0.76469749  0.03630472  0.27154821    -0.07400
C677        C  0.70923950  0.02288621  0.30980888    -0.13900
C678        C  0.69736171  0.02169935  0.32854468    -0.13600
C679        C  0.68459931  0.02074231  0.35179602     0.25200
C680        C  0.69735708  0.02553099  0.37363308    -0.19000
C681        C  0.68518247  0.02461325  0.39628064    -0.07500
C682        C  0.65996885  0.01892095  0.39746606    -0.03600
C683        C  0.64729034  0.01417298  0.37536912    -0.08900
C684        C  0.65953116  0.01506399  0.35273175    -0.16500
H685        H  0.72732112  0.01193301  0.22747136     0.11600
H686        H  0.69930593  0.00925667  0.26289762     0.10900
H687        H  0.75488014  0.04106421  0.30948089     0.10800
H688        H  0.78279232  0.04401968  0.27446603     0.11400
H689        H  0.71675769  0.03000863  0.37316082     0.11400
H690        H  0.69554970  0.02858408  0.41278013     0.11400
H691        H  0.62795672  0.00955186  0.37547959     0.11500
H692        H  0.64944182  0.01128722  0.33597277     0.10400
C693        C  0.75175012  0.26459139  0.00425063    -0.03400
C694        C  0.72742093  0.25584449  0.00611511    -0.09200
C695        C  0.70750209  0.27203160  0.00533808    -0.16900
C696        C  0.71137295  0.29730689  0.00273289     0.25300
C697        C  0.73544896  0.30633222  0.00102484    -0.18500
C698        C  0.75549940  0.29011486  0.00179181    -0.07400
C699        C  0.69046658  0.31368296  0.00189426    -0.13900
C700        C  0.67192316  0.32593451  0.00150426    -0.13600
C701        C  0.64887406  0.33915477  0.00150613     0.25200
C702        C  0.64835113  0.36463724  0.99790414    -0.19000
C703        C  0.62594969  0.37734099  0.99828926    -0.07500
C704        C  0.60364709  0.36474060  0.00226824    -0.03600
C705        C  0.60441304  0.33908815  0.00570513    -0.08900
C706        C  0.62681611  0.32645211  0.00534313    -0.16500
H707        H  0.72355049  0.23647679  0.00822842     0.11600
H708        H  0.68900111  0.26477578  0.00676455     0.10900
H709        H  0.73873254  0.32587766  0.99903578     0.10800
H710        H  0.77385393  0.29760844  0.00027185     0.11400
H711        H  0.66526293  0.37471541  0.99485791     0.11400
H712        H  0.62619561  0.39700649  0.99536269     0.11400
H713        H  0.58777472  0.32869932  0.00895620     0.11500
H714        H  0.62693048  0.30673309  0.00818261     0.10400
C715        C  0.24927702  0.26792358  0.00658350    -0.03400
C716        C  0.24647070  0.29260151  0.99929347    -0.09200
C717        C  0.26675145  0.30856331  0.99904495    -0.16900
C718        C  0.29000537  0.30007741  0.00618985     0.25300
C719        C  0.29277519  0.27576115  0.01399176    -0.18500
C720        C  0.27264560  0.25984618  0.01423222    -0.07400
C721        C  0.31131311  0.31585761  0.00516322    -0.13900
C722        C  0.33021746  0.32750684  0.00456815    -0.13600
C723        C  0.35347600  0.34028415  0.00422134     0.25200
C724        C  0.37514617  0.32752406  0.99876769    -0.19000
C725        C  0.39779962  0.33976676  0.99882835    -0.07500
C726        C  0.39913006  0.36502854  0.00432138    -0.03600
C727        C  0.37718861  0.37767154  0.00973728    -0.08900
C728        C  0.35458262  0.36538190  0.00969922    -0.16500
H729        H  0.22880011  0.29943607  0.99325912     0.11600
H730        H  0.26435754  0.32738865  0.99299541     0.10900
H731        H  0.31061360  0.26899253  0.01969768     0.10800
H732        H  0.27554029  0.24116725  0.02039657     0.11400
H733        H  0.37454737  0.30807320  0.99450951     0.11400
H734        H  0.41418088  0.32942645  0.99440857     0.11400
H735        H  0.37738882  0.39702258  0.01426913     0.11500
H736        H  0.33797373  0.37545587  0.01405435     0.10400
C737        C  0.75250750  0.78259862  0.01143579    -0.03400
C738        C  0.75545884  0.75754300  0.00563156    -0.09200
C739        C  0.73513917  0.74166324  0.00545385    -0.16900
C740        C  0.71168704  0.75060610  0.01117060     0.25300
C741        C  0.70871793  0.77530334  0.01755210    -0.18500
C742        C  0.72890516  0.79114393  0.01775354    -0.07400
C743        C  0.69039623  0.73488238  0.00997692    -0.13900
C744        C  0.67149727  0.72330412  0.00896517    -0.13600
C745        C  0.64815793  0.71081722  0.00787695     0.25200
C746        C  0.62638427  0.72395496  0.01171722    -0.19000
C747        C  0.60365897  0.71194227  0.01078241    -0.07500
C748        C  0.60237582  0.68654204  0.00601232    -0.03600
C749        C  0.62441849  0.67353950  0.00205971    -0.08900
C750        C  0.64710912  0.68560326  0.00298609    -0.16500
H751        H  0.77328707  0.75030145  0.00065547     0.11600
H752        H  0.73766399  0.72253542  0.00051183     0.10900
H753        H  0.69069274  0.78241980  0.02212807     0.10800
H754        H  0.72584296  0.81013837  0.02273854     0.11400
H755        H  0.62697209  0.74350167  0.01551514     0.11400
H756        H  0.58718921  0.72256649  0.01404858     0.11400
H757        H  0.62426129  0.65406272  0.99809901     0.11500
H758        H  0.66382978  0.67525046  0.99989319     0.10400
C759        C  0.24885922  0.78486164  0.99535175    -0.03400
C760        C  0.24643135  0.76072321  0.00435674    -0.09200
C761        C  0.26667248  0.74474211  0.00449033    -0.16900
C762        C  0.28948485  0.75262999  0.99543441     0.25300
C763        C  0.29183346  0.77639637  0.98591100    -0.18500
C764        C  0.27174652  0.79237382  0.98587788    -0.07400
C765        C  0.31077383  0.73681980  0.99637254    -0.13900
C766        C  0.32953498  0.72495810  0.99704699    -0.13600
C767        C  0.35265231  0.71195478  0.99776588     0.25200
C768        C  0.37438500  0.72394714  0.99091673    -0.19000
C769        C  0.39689822  0.71154276  0.99183823    -0.07500
C770        C  0.39801986  0.68687287  0.99956976    -0.03600
C771        C  0.37604476  0.67494449  0.00631972    -0.08900
C772        C  0.35356287  0.68741925  0.00546932    -0.16500
H773        H  0.22911998  0.75440930  0.01186953     0.11600
H774        H  0.26460885  0.72637945  0.01193278     0.10900
H775        H  0.30931911  0.78271076  0.97874775     0.10800
H776        H  0.27422582  0.81066155  0.97844190     0.11400
H777        H  0.37393983  0.74292975  0.98488473     0.11400
H778        H  0.41335048  0.72125597  0.98629401     0.11400
H779        H  0.37618194  0.65606166  0.01257472     0.11500
H780        H  0.33690367  0.67793837  0.01089663     0.10400
loop_ 
_geom_bond_atom_site_label_1 
_geom_bond_atom_site_label_2 
_geom_bond_distance 
_geom_bond_site_symmetry_2 
_ccdc_geom_bond_type 
N1            N2   1.322       .  A
N1            C5   1.346       .  A
N1           Cu9   2.084       .  S
N2            C3   1.345       .  A
N2           Cu8   2.076       .  S
C3            C4   1.387       .  A
C3            H6   1.081       .  S
C4            C5   1.389       .  A
C4          C770   1.487   1_554  S
C5            H7   1.081       .  S
Cu8          N11   2.076       .  S
Cu9          N19   2.084       .  S
Cu10         N12   2.066       .  S
Cu10         N18   2.067       .  S
N11          N12   1.321       .  A
N11          C15   1.345       .  A
N12          C13   1.344       .  A
C13          C14   1.382       .  A
C13          H16   1.082       .  S
C14          C15   1.384       .  A
C14          C38   1.471       .  S
C15          H17   1.082       .  S
N18          N19   1.321       .  A
N18          C22   1.343       .  A
N19          C20   1.347       .  A
C20          C21   1.391       .  A
C20          H23   1.081       .  S
C21          C22   1.386       .  A
C21         C748   1.487       .  S
C22          H24   1.081       .  S
N25          N26   1.321       .  A
N25          C29   1.347       .  A
N25         Cu33   2.089       .  S
N26          C27   1.344       .  A
N26         Cu32   2.070       .  S
C27          C28   1.387       .  A
C27          H30   1.081       .  S
C28          C29   1.391       .  A
C28         C726   1.489       .  S
C29          H31   1.081       .  S
Cu32         N35   2.069       .  S
Cu33         N43   2.089       .  S
Cu34         N36   2.078       .  S
Cu34         N42   2.078       .  S
N35          N36   1.322       .  A
N35          C39   1.345       .  A
N36          C37   1.345       .  A
C37          C38   1.384       .  A
C37          H40   1.082       .  S
C38          C39   1.382       .  A
C39          H41   1.082       .  S
N42          N43   1.322       .  A
N42          C46   1.346       .  A
N43          C44   1.347       .  A
C44          C45   1.391       .  A
C44          H47   1.081       .  S
C45          C46   1.389       .  A
C45         C704   1.492       .  S
C46          H48   1.081       .  S
N49          N50   1.322       .  A
N49          C53   1.346       .  A
N49         Cu57   2.083       .  S
N50          C51   1.345       .  A
N50         Cu56   2.076       .  S
C51          C52   1.388       .  A
C51          H54   1.081       .  S
C52          C53   1.390       .  A
C52         C682   1.488       .  S
C53          H55   1.081       .  S
Cu56         N59   2.075       .  S
Cu57         N67   2.082       .  S
Cu58         N60   2.070       .  S
Cu58         N66   2.070       .  S
N59          N60   1.322       .  A
N59          C63   1.345       .  A
N60          C61   1.345       .  A
C61          C62   1.383       .  A
C61          H64   1.082       .  S
C62          C63   1.384       .  A
C62          C86   1.471       .  S
C63          H65   1.082       .  S
N66          N67   1.321       .  A
N66          C70   1.343       .  A
N67          C68   1.346       .  A
C68          C69   1.390       .  A
C68          H71   1.081       .  S
C69          C70   1.387       .  A
C69         C649   1.488       .  S
C70          H72   1.081       .  S
N73          N74   1.321       .  A
N73          C77   1.347       .  A
N73         Cu81   2.083       .  S
N74          C75   1.344       .  A
N74         Cu80   2.072       .  S
C75          C76   1.387       .  A
C75          H78   1.081       .  S
C76          C77   1.390       .  A
C76         C627   1.488       .  S
C77          H79   1.081       .  S
Cu80         N83   2.071       .  S
Cu81         N91   2.083       .  S
Cu82         N84   2.074       .  S
Cu82         N90   2.074       .  S
N83          N84   1.322       .  A
N83          C87   1.345       .  A
N84          C85   1.346       .  A
C85          C86   1.384       .  A
C85          H88   1.082       .  S
C86          C87   1.383       .  A
C87          H89   1.082       .  S
N90          N91   1.322       .  A
N90          C94   1.344       .  A
N91          C92   1.346       .  A
C92          C93   1.390       .  A
C92          H95   1.081       .  S
C93          C94   1.388       .  A
C93         C605   1.489       .  S
C94          H96   1.081       .  S
O97        Cu105   2.039   1_554  S
O97         C107   1.279       .  A
O98        Cu105   2.040       .  S
O98         C108   1.279       .  A
O99        Cu105   2.049   1_565  S
O99         C109   1.282       .  A
O100       Cu105   2.045   1_554  S
O100        C110   1.282       .  A
O101       Cu106   1.976   1_554  S
O101        C110   1.273       .  A
O102       Cu106   1.978   1_565  S
O102        C109   1.273       .  A
O103       Cu106   1.992       .  S
O103        C108   1.277       .  A
O104       Cu106   1.996   1_554  S
O104        C107   1.278       .  A
Cu105      Cu106   2.372       .  S
C107        C114   1.476       .  S
C108        C424   1.475       .  S
C109        C458   1.473       .  S
C110        C148   1.471       .  S
N111        N112   1.321       .  A
N111        C115   1.356       .  A
N111       Cu119   2.107       .  S
N112        C113   1.338       .  A
N112       Cu118   2.049       .  S
C113        C114   1.377       .  A
C113        H116   1.082       .  S
C114        C115   1.395       .  A
C115        H117   1.082       .  S
Cu118       N121   2.050       .  S
Cu119       N129   2.111       .  S
Cu120       N122   2.077       .  S
Cu120       N128   2.081       .  S
N121        N122   1.317       .  A
N121        C125   1.336       .  A
N122        C123   1.353       .  A
C123        C124   1.390       .  A
C123        H126   1.082       .  S
C124        C125   1.380       .  A
C124        C247   1.472       .  S
C125        H127   1.082       .  S
N128        N129   1.328       .  A
N128        C132   1.341       .  A
N129        C130   1.351       .  A
C130        C131   1.390       .  A
C130        H133   1.082       .  S
C131        C132   1.382       .  A
C131        C671   1.486       .  S
C132        H134   1.081       .  S
N135        N136   1.322       .  A
N135        C139   1.356       .  A
N135       Cu143   2.106       .  S
N136        C137   1.337       .  A
N136       Cu142   2.055       .  S
C137        C138   1.378       .  A
C137        H140   1.082       .  S
C138        C139   1.394       .  A
C138        C259   1.477       .  S
C139        H141   1.082       .  S
Cu142       N145   2.056       .  S
Cu143       N153   2.109       .  S
Cu144       N146   2.076       .  S
Cu144       N152   2.079       .  S
N145        N146   1.318       .  A
N145        C149   1.338       .  A
N146        C147   1.352       .  A
C147        C148   1.388       .  A
C147        H150   1.082   1_554  S
C148        C149   1.382       .  A
C149        H151   1.082       .  S
N152        N153   1.326       .  A
N152        C156   1.342       .  A
N153        C154   1.351       .  A
C154        C155   1.393       .  A
C154        H157   1.081       .  S
C155        C156   1.385       .  A
C155        C693   1.493       .  S
C156        H158   1.080       .  S
O159       Cu167   2.043       .  S
O159        C169   1.280       .  A
O160       Cu167   2.043   1_565  S
O160        C170   1.280       .  A
O161       Cu167   2.043   1_655  S
O161        C171   1.281       .  A
O162       Cu167   2.042       .  S
O162        C172   1.281       .  A
O163       Cu168   1.970       .  S
O163        C172   1.273       .  A
O164       Cu168   1.968   1_655  S
O164        C171   1.273       .  A
O165       Cu168   1.991   1_565  S
O165        C170   1.277       .  A
O166       Cu168   1.990       .  S
O166        C169   1.276       .  A
Cu167      Cu168   2.373       .  S
C169        C176   1.475   1_455  S
C170        C400   1.476       .  S
C171        C434   1.468       .  S
C172        C210   1.468       .  S
N173        N174   1.321       .  A
N173        C177   1.356   1_655  A
N173       Cu181   2.105   1_655  S
N174        C175   1.337       .  A
N174       Cu180   2.049       .  S
C175        C176   1.377       .  A
C175        H178   1.082       .  S
C176        C177   1.393   1_655  A
C177        H179   1.082       .  S
Cu180       N183   2.049       .  S
Cu181       N191   2.109       .  S
Cu182       N184   2.069   1_455  S
Cu182       N190   2.073       .  S
N183        N184   1.317       .  A
N183        C187   1.336       .  A
N184        C185   1.351       .  A
C185        C186   1.388       .  A
C185        H188   1.082   1_655  S
C186        C187   1.380       .  A
C186        C261   1.467       .  S
C187        H189   1.082       .  S
N190        N191   1.326       .  A
N190        C194   1.340       .  A
N191        C192   1.351       .  A
C192        C193   1.393       .  A
C192        H195   1.081       .  S
C193        C194   1.383       .  A
C193        C594   1.490       .  S
C194        H196   1.080       .  S
N197        N198   1.321       .  A
N197        C201   1.356       .  A
N197       Cu205   2.102       .  S
N198        C199   1.336       .  A
N198       Cu204   2.050       .  S
C199        C200   1.377       .  A
C199        H202   1.082       .  S
C200        C201   1.394       .  A
C200        C231   1.475       .  S
C201        H203   1.082       .  S
Cu204       N207   2.051       .  S
Cu205       N215   2.106       .  S
Cu206       N208   2.069       .  S
Cu206       N214   2.073       .  S
N207        N208   1.317       .  A
N207        C211   1.337       .  A
N208        C209   1.351       .  A
C209        C210   1.388       .  A
C209        H212   1.082       .  S
C210        C211   1.380       .  A
C211        H213   1.082       .  S
N214        N215   1.326       .  A
N214        C218   1.340       .  A
N215        C216   1.350       .  A
C216        C217   1.392       .  A
C216        H219   1.081       .  S
C217        C218   1.383       .  A
C217        C616   1.488       .  S
C218        H220   1.080       .  S
O221       Cu229   2.047   1_556  S
O221        C231   1.281       .  A
O222       Cu229   2.048       .  S
O222        C232   1.281       .  A
O223       Cu229   2.045   1_565  S
O223        C233   1.281       .  A
O224       Cu229   2.042       .  S
O224        C234   1.281   1_554  A
O225       Cu230   1.967   1_556  S
O225        C234   1.273       .  A
O226       Cu230   1.968   1_565  S
O226        C233   1.273       .  A
O227       Cu230   1.985       .  S
O227        C232   1.276       .  A
O228       Cu230   1.983   1_556  S
O228        C231   1.276       .  A
Cu229      Cu230   2.372       .  S
C232        C290   1.476       .  S
C233        C386   1.469       .  S
C234        C324   1.467       .  S
O235       Cu243   1.979       .  S
O235        C245   1.275       .  A
O236       Cu243   1.979   1_465  S
O236        C246   1.275       .  A
O237       Cu243   1.975       .  S
O237        C247   1.274       .  A
O238       Cu243   1.979   1_455  S
O238        C248   1.274       .  A
O239       Cu244   2.047   1_455  S
O239        C248   1.282       .  A
O240       Cu244   2.048       .  S
O240        C247   1.282       .  A
O241       Cu244   2.042   1_465  S
O241        C246   1.280       .  A
O242       Cu244   2.042       .  S
O242        C245   1.280       .  A
Cu243      Cu244   2.373       .  S
C245        C266   1.472       .  S
C246        C352   1.471   1_455  S
C248        C300   1.473       .  S
O249       Cu257   2.047   1_655  S
O249        C259   1.281       .  A
O250       Cu257   2.045   1_556  S
O250        C260   1.281       .  A
O251       Cu257   2.040   1_656  S
O251        C261   1.281       .  A
O252       Cu257   2.039       .  S
O252        C262   1.281       .  A
O253       Cu258   1.971       .  S
O253        C262   1.273       .  A
O254       Cu258   1.971   1_656  S
O254        C261   1.273       .  A
O255       Cu258   1.990   1_556  S
O255        C260   1.276       .  A
O256       Cu258   1.988   1_655  S
O256        C259   1.276       .  A
Cu257      Cu258   2.372       .  S
C260        C314   1.476       .  S
C262        C276   1.467       .  S
N263        N264   1.321   1_655  A
N263        C267   1.355       .  A
N263       Cu271   2.098       .  S
N264        C265   1.336       .  A
N264       Cu270   2.047       .  S
C265        C266   1.377   1_455  A
C265        H268   1.082       .  S
C266        C267   1.392       .  A
C267        H269   1.082       .  S
Cu270       N273   2.047       .  S
Cu271       N281   2.102       .  S
Cu272       N274   2.074   1_655  S
Cu272       N280   2.078       .  S
N273        N274   1.318       .  A
N273        C277   1.337       .  A
N274        C275   1.351       .  A
C275        C276   1.388       .  A
C275        H278   1.082       .  S
C276        C277   1.380       .  A
C277        H279   1.082       .  S
N280        N281   1.326       .  A
N280        C284   1.341       .  A
N281        C282   1.350       .  A
C282        C283   1.391       .  A
C282        H285   1.081       .  S
C283        C284   1.384       .  A
C283        C572   1.489       .  S
C284        H286   1.081       .  S
N287        N288   1.321       .  A
N287        C291   1.355       .  A
N287       Cu295   2.099       .  S
N288        C289   1.337       .  A
N288       Cu294   2.055       .  S
C289        C290   1.379       .  A
C289        H292   1.082       .  S
C290        C291   1.392       .  A
C291        H293   1.082       .  S
Cu294       N297   2.056       .  S
Cu295       N305   2.102       .  S
Cu296       N298   2.082       .  S
Cu296       N304   2.086       .  S
N297        N298   1.319       .  A
N297        C301   1.338       .  A
N298        C299   1.353       .  A
C299        C300   1.389       .  A
C299        H302   1.082       .  S
C300        C301   1.381       .  A
C301        H303   1.082       .  S
N304        N305   1.327       .  A
N304        C308   1.343       .  A
N305        C306   1.349       .  A
C306        C307   1.389       .  A
C306        H309   1.082       .  S
C307        C308   1.384       .  A
C307        C638   1.487       .  S
C308        H310   1.081       .  S
N311        N312   1.321       .  A
N311        C315   1.355       .  A
N311       Cu319   2.104       .  S
N312        C313   1.338       .  A
N312       Cu318   2.052       .  S
C313        C314   1.378       .  A
C313        H316   1.082       .  S
C314        C315   1.393       .  A
C315        H317   1.082   1_556  S
Cu318       N321   2.051       .  S
Cu319       N329   2.107   1_556  S
Cu320       N322   2.069   1_554  S
Cu320       N328   2.073       .  S
N321        N322   1.318       .  A
N321        C325   1.336       .  A
N322        C323   1.351   1_556  A
C323        C324   1.387   1_554  A
C323        H326   1.082       .  S
C324        C325   1.380       .  A
C325        H327   1.082       .  S
N328        N329   1.326       .  A
N328        C332   1.340       .  A
N329        C330   1.351       .  A
C330        C331   1.391       .  A
C330        H333   1.082       .  S
C331        C332   1.382       .  A
C331        C715   1.487       .  S
C332        H334   1.081       .  S
O335       Cu343   2.040   1_655  S
O335        C345   1.281       .  A
O336       Cu343   2.036   1_556  S
O336        C346   1.280       .  A
O337       Cu343   2.044       .  S
O337        C347   1.280       .  A
O338       Cu343   2.048   1_656  S
O338        C348   1.281       .  A
O339       Cu344   1.994   1_556  S
O339        C348   1.277       .  A
O340       Cu344   1.996   1_455  S
O340        C347   1.277       .  A
O341       Cu344   1.971   1_456  S
O341        C346   1.273       .  A
O342       Cu344   1.978       .  S
O342        C345   1.274       .  A
Cu343      Cu344   2.372   1_455  S
C345        C362   1.469       .  S
C346        C410   1.466       .  S
C347        C376   1.478       .  S
C348        C448   1.478       .  S
N349        N350   1.321   1_455  A
N349        C353   1.355       .  A
N349       Cu357   2.095       .  S
N350        C351   1.335       .  A
N350       Cu356   2.049       .  S
C351        C352   1.376       .  A
C351        H354   1.082       .  S
C352        C353   1.392   1_655  A
C353        H355   1.082       .  S
Cu356       N359   2.049       .  S
Cu357       N367   2.099       .  S
Cu358       N360   2.077   1_455  S
Cu358       N366   2.081       .  S
N359        N360   1.318       .  A
N359        C363   1.338       .  A
N360        C361   1.352   1_655  A
C361        C362   1.389   1_455  A
C361        H364   1.082       .  S
C362        C363   1.380       .  A
C363        H365   1.082       .  S
N366        N367   1.327       .  A
N366        C370   1.342       .  A
N367        C368   1.349       .  A
C368        C369   1.389       .  A
C368        H371   1.082       .  S
C369        C370   1.383       .  A
C369        C539   1.485       .  S
C370        H372   1.081       .  S
N373        N374   1.321       .  A
N373        C377   1.356       .  A
N373       Cu381   2.108       .  S
N374        C375   1.339       .  A
N374       Cu380   2.052       .  S
C375        C376   1.378       .  A
C375        H378   1.082       .  S
C376        C377   1.394       .  A
C377        H379   1.082       .  S
Cu380       N383   2.052       .  S
Cu381       N391   2.111   1_554  S
Cu382       N384   2.074       .  S
Cu382       N390   2.078   1_554  S
N383        N384   1.318       .  A
N383        C387   1.336       .  A
N384        C385   1.353       .  A
C385        C386   1.389       .  A
C385        H388   1.082       .  S
C386        C387   1.380       .  A
C387        H389   1.082       .  S
N390        N391   1.327       .  A
N390        C394   1.342       .  A
N391        C392   1.351       .  A
C392        C393   1.391       .  A
C392        H395   1.082       .  S
C393        C394   1.382       .  A
C393        C759   1.486       .  S
C394        H396   1.082       .  S
N397        N398   1.320       .  A
N397        C401   1.356       .  A
N397       Cu405   2.107       .  S
N398        C399   1.337       .  A
N398       Cu404   2.045       .  S
C399        C400   1.377       .  A
C399        H402   1.082       .  S
C400        C401   1.394       .  A
C401        H403   1.082   1_455  S
Cu404       N407   2.045       .  S
Cu405       N415   2.111       .  S
Cu406       N408   2.069       .  S
Cu406       N414   2.073       .  S
N407        N408   1.318       .  A
N407        C411   1.336       .  A
N408        C409   1.351       .  A
C409        C410   1.388       .  A
C409        H412   1.082       .  S
C410        C411   1.379       .  A
C411        H413   1.082       .  S
N414        N415   1.326       .  A
N414        C418   1.341       .  A
N415        C416   1.351       .  A
C416        C417   1.392       .  A
C416        H419   1.081       .  S
C417        C418   1.383       .  A
C417        C528   1.489       .  S
C418        H420   1.081       .  S
N421        N422   1.320       .  A
N421        C425   1.355       .  A
N421       Cu429   2.102       .  S
N422        C423   1.336       .  A
N422       Cu428   2.044       .  S
C423        C424   1.376       .  A
C423        H426   1.082       .  S
C424        C425   1.394       .  A
C425        H427   1.082       .  S
Cu428       N431   2.045       .  S
Cu429       N439   2.106       .  S
Cu430       N432   2.073       .  S
Cu430       N438   2.077       .  S
N431        N432   1.317       .  A
N431        C435   1.335       .  A
N432        C433   1.352       .  A
C433        C434   1.389       .  A
C433        H436   1.082       .  S
C434        C435   1.379       .  A
C435        H437   1.082       .  S
N438        N439   1.327       .  A
N438        C442   1.340       .  A
N439        C440   1.350       .  A
C440        C441   1.390       .  A
C440        H443   1.081       .  S
C441        C442   1.382       .  A
C441        C660   1.487       .  S
C442        H444   1.081       .  S
N445        N446   1.322       .  A
N445        C449   1.356       .  A
N445       Cu453   2.102   1_556  S
N446        C447   1.339       .  A
N446       Cu452   2.061       .  S
C447        C448   1.379       .  A
C447        H450   1.082       .  S
C448        C449   1.393       .  A
C449        H451   1.082   1_556  S
Cu452       N455   2.061       .  S
Cu453       N463   2.104       .  S
Cu454       N456   2.075   1_554  S
Cu454       N462   2.077       .  S
N455        N456   1.318       .  A
N455        C459   1.339       .  A
N456        C457   1.352       .  A
C457        C458   1.389       .  A
C457        H460   1.082   1_556  S
C458        C459   1.382       .  A
C459        H461   1.082       .  S
N462        N463   1.326       .  A
N462        C466   1.341       .  A
N463        C464   1.350       .  A
C464        C465   1.391       .  A
C464        H467   1.081       .  S
C465        C466   1.383       .  A
C465        C737   1.488       .  S
C466        H468   1.081       .  S
N469        N470   1.321       .  A
N469        C473   1.346       .  A
N469       Cu477   2.083       .  S
N470        C471   1.344       .  A
N470       Cu476   2.072       .  S
C471        C472   1.388       .  A
C471        H474   1.081       .  S
C472        C473   1.391       .  A
C472        C583   1.491       .  S
C473        H475   1.081       .  S
Cu476       N479   2.071       .  S
Cu477       N487   2.083       .  S
Cu478       N480   2.074       .  S
Cu478       N486   2.074       .  S
N479        N480   1.322       .  A
N479        C483   1.345       .  A
N480        C481   1.345       .  A
C481        C482   1.383       .  A
C481        H484   1.082       .  S
C482        C483   1.382       .  A
C482        C506   1.471       .  S
C483        H485   1.082       .  S
N486        N487   1.321       .  A
N486        C490   1.345       .  A
N487        C488   1.345       .  A
C488        C489   1.390       .  A
C488        H491   1.081       .  S
C489        C490   1.389       .  A
C489        C517   1.490       .  S
C490        H492   1.081       .  S
N493        N494   1.322       .  A
N493        C497   1.347       .  A
N493       Cu501   2.089       .  S
N494        C495   1.345       .  A
N494       Cu500   2.075       .  S
C495        C496   1.388       .  A
C495        H498   1.081       .  S
C496        C497   1.392       .  A
C496        C561   1.492       .  S
C497        H499   1.081       .  S
Cu500       N503   2.075       .  S
Cu501       N511   2.089       .  S
Cu502       N504   2.067       .  S
Cu502       N510   2.067       .  S
N503        N504   1.321       .  A
N503        C507   1.345       .  A
N504        C505   1.344       .  A
C505        C506   1.382       .  A
C505        H508   1.082       .  S
C506        C507   1.384       .  A
C507        H509   1.082       .  S
N510        N511   1.322       .  A
N510        C514   1.343       .  A
N511        C512   1.347       .  A
C512        C513   1.390       .  A
C512        H515   1.082       .  S
C513        C514   1.385       .  A
C513        C550   1.486       .  S
C514        H516   1.081       .  S
C517        C518   1.410   1_455  A
C517        C522   1.408       .  A
C518        C519   1.401       .  A
C518        H531   1.081       .  S
C519        C520   1.399   1_655  A
C519        H532   1.084       .  S
C520        C521   1.399       .  A
C520        C523   1.443       .  S
C521        C522   1.399       .  A
C521        H533   1.084       .  S
C522        H534   1.081       .  S
C523        C524   1.208       .  T
C524        C525   1.443       .  S
C525        C526   1.397   1_455  A
C525        C530   1.401       .  A
C526        C527   1.396       .  A
C526        H535   1.084       .  S
C527        C528   1.409   1_655  A
C527        H536   1.081       .  S
C528        C529   1.408       .  A
C529        C530   1.403       .  A
C529        H537   1.082       .  S
C530        H538   1.083       .  S
C539        C540   1.407       .  A
C539        C544   1.407       .  A
C540        C541   1.402       .  A
C540        H553   1.082   1_455  S
C541        C542   1.401       .  A
C541        H554   1.083   1_455  S
C542        C543   1.398       .  A
C542        C545   1.442       .  S
C543        C544   1.396       .  A
C543        H555   1.084       .  S
C544        H556   1.082       .  S
C545        C546   1.207       .  T
C546        C547   1.442       .  S
C547        C548   1.400       .  A
C547        C552   1.399       .  A
C548        C549   1.400       .  A
C548        H557   1.084   1_455  S
C549        C550   1.407       .  A
C549        H558   1.082   1_455  S
C550        C551   1.409       .  A
C551        C552   1.399       .  A
C551        H559   1.082       .  S
C552        H560   1.084       .  S
C561        C562   1.409       .  A
C561        C566   1.411   1_455  A
C562        C563   1.400   1_455  A
C562        H575   1.081       .  S
C563        C564   1.400       .  A
C563        H576   1.084       .  S
C564        C565   1.399       .  A
C564        C567   1.445       .  S
C565        C566   1.401       .  A
C565        H577   1.084       .  S
C566        H578   1.081       .  S
C567        C568   1.209       .  T
C568        C569   1.444       .  S
C569        C570   1.402       .  A
C569        C574   1.397       .  A
C570        C571   1.404       .  A
C570        H579   1.083       .  S
C571        C572   1.409       .  A
C571        H580   1.082       .  S
C572        C573   1.409       .  A
C573        C574   1.396       .  A
C573        H581   1.081   1_655  S
C574        H582   1.084   1_655  S
C583        C584   1.409       .  A
C583        C588   1.410       .  A
C584        C585   1.400       .  A
C584        H597   1.081       .  S
C585        C586   1.400       .  A
C585        H598   1.084       .  S
C586        C587   1.398       .  A
C586        C589   1.443       .  S
C587        C588   1.399       .  A
C587        H599   1.084       .  S
C588        H600   1.081       .  S
C589        C590   1.208       .  T
C590        C591   1.443       .  S
C591        C592   1.402       .  A
C591        C596   1.396       .  A
C592        C593   1.404       .  A
C592        H601   1.083       .  S
C593        C594   1.408       .  A
C593        H602   1.082       .  S
C594        C595   1.410       .  A
C595        C596   1.395       .  A
C595        H603   1.080       .  S
C596        H604   1.084       .  S
C605        C606   1.408       .  A
C605        C610   1.410       .  A
C606        C607   1.399       .  A
C606        H619   1.081       .  S
C607        C608   1.400       .  A
C607        H620   1.084       .  S
C608        C609   1.398       .  A
C608        C611   1.442       .  S
C609        C610   1.399       .  A
C609        H621   1.084       .  S
C610        H622   1.081       .  S
C611        C612   1.207       .  T
C612        C613   1.441       .  S
C613        C614   1.401       .  A
C613        C618   1.397       .  A
C614        C615   1.403       .  A
C614        H623   1.083       .  S
C615        C616   1.408       .  A
C615        H624   1.082       .  S
C616        C617   1.409       .  A
C617        C618   1.395       .  A
C617        H625   1.080       .  S
C618        H626   1.084       .  S
C627        C628   1.409       .  A
C627        C632   1.408       .  A
C628        C629   1.400       .  A
C628        H641   1.082       .  S
C629        C630   1.399       .  A
C629        H642   1.084       .  S
C630        C631   1.400       .  A
C630        C633   1.444       .  S
C631        C632   1.400       .  A
C631        H643   1.084       .  S
C632        H644   1.082       .  S
C633        C634   1.208       .  T
C634        C635   1.444       .  S
C635        C636   1.399       .  A
C635        C640   1.402       .  A
C636        C637   1.398       .  A
C636        H645   1.084       .  S
C637        C638   1.408       .  A
C637        H646   1.082       .  S
C638        C639   1.408       .  A
C639        C640   1.403       .  A
C639        H647   1.082       .  S
C640        H648   1.083       .  S
C649        C650   1.409       .  A
C649        C654   1.408       .  A
C650        C651   1.399       .  A
C650        H663   1.081       .  S
C651        C652   1.398       .  A
C651        H664   1.084       .  S
C652        C653   1.400       .  A
C652        C655   1.441       .  S
C653        C654   1.399       .  A
C653        H665   1.084       .  S
C654        H666   1.081       .  S
C655        C656   1.207       .  T
C656        C657   1.441       .  S
C657        C658   1.397       .  A
C657        C662   1.401       .  A
C658        C659   1.395       .  A
C658        H667   1.084       .  S
C659        C660   1.409       .  A
C659        H668   1.081       .  S
C660        C661   1.408       .  A
C661        C662   1.403       .  A
C661        H669   1.082       .  S
C662        H670   1.083       .  S
C671        C672   1.407       .  A
C671        C676   1.408       .  A
C672        C673   1.403       .  A
C672        H685   1.082       .  S
C673        C674   1.402       .  A
C673        H686   1.083       .  S
C674        C675   1.398       .  A
C674        C677   1.443       .  S
C675        C676   1.397       .  A
C675        H687   1.084       .  S
C676        H688   1.082       .  S
C677        C678   1.208       .  T
C678        C679   1.443       .  S
C679        C680   1.400       .  A
C679        C684   1.399       .  A
C680        C681   1.399       .  A
C680        H689   1.084       .  S
C681        C682   1.408       .  A
C681        H690   1.082       .  S
C682        C683   1.409       .  A
C683        C684   1.400       .  A
C683        H691   1.081       .  S
C684        H692   1.083       .  S
C693        C694   1.410       .  A
C693        C698   1.409       .  A
C694        C695   1.398       .  A
C694        H707   1.080       .  S
C695        C696   1.398       .  A
C695        H708   1.084       .  S
C696        C697   1.402       .  A
C696        C699   1.446       .  S
C697        C698   1.404       .  A
C697        H709   1.083   1_554  S
C698        H710   1.082       .  S
C699        C700   1.210       .  T
C700        C701   1.446       .  S
C701        C702   1.400   1_554  A
C701        C706   1.400       .  A
C702        C703   1.402       .  A
C702        H711   1.083       .  S
C703        C704   1.410   1_556  A
C703        H712   1.081       .  S
C704        C705   1.408       .  A
C705        C706   1.400       .  A
C705        H713   1.081       .  S
C706        H714   1.084       .  S
C715        C716   1.408   1_554  A
C715        C720   1.409       .  A
C716        C717   1.404       .  A
C716        H729   1.082       .  S
C717        C718   1.402   1_556  A
C717        H730   1.083       .  S
C718        C719   1.397       .  A
C718        C721   1.443       .  S
C719        C720   1.396       .  A
C719        H731   1.084       .  S
C720        H732   1.081       .  S
C721        C722   1.208       .  T
C722        C723   1.444       .  S
C723        C724   1.401   1_554  A
C723        C728   1.399       .  A
C724        C725   1.401       .  A
C724        H733   1.084       .  S
C725        C726   1.408   1_556  A
C725        H734   1.081       .  S
C726        C727   1.410       .  A
C727        C728   1.400       .  A
C727        H735   1.081       .  S
C728        H736   1.084       .  S
C737        C738   1.408       .  A
C737        C742   1.409       .  A
C738        C739   1.403       .  A
C738        H751   1.082       .  S
C739        C740   1.401       .  A
C739        H752   1.083       .  S
C740        C741   1.397       .  A
C740        C743   1.441       .  S
C741        C742   1.396       .  A
C741        H753   1.084       .  S
C742        H754   1.081       .  S
C743        C744   1.207       .  T
C744        C745   1.441       .  S
C745        C746   1.400       .  A
C745        C750   1.398       .  A
C746        C747   1.399       .  A
C746        H755   1.084       .  S
C747        C748   1.407       .  A
C747        H756   1.082       .  S
C748        C749   1.409       .  A
C749        C750   1.399       .  A
C749        H757   1.081   1_554  S
C750        H758   1.084   1_554  S
C759        C760   1.407   1_556  A
C759        C764   1.408       .  A
C760        C761   1.404       .  A
C760        H773   1.082       .  S
C761        C762   1.402   1_554  A
C761        H774   1.083       .  S
C762        C763   1.398       .  A
C762        C765   1.444       .  S
C763        C764   1.397       .  A
C763        H775   1.084       .  S
C764        H776   1.082       .  S
C765        C766   1.209       .  T
C766        C767   1.444       .  S
C767        C768   1.400       .  A
C767        C772   1.400   1_556  A
C768        C769   1.400       .  A
C768        H777   1.084       .  S
C769        C770   1.407       .  A
C769        H778   1.082       .  S
C770        C771   1.409   1_556  A
C771        C772   1.400       .  A
C771        H779   1.082       .  S
C772        H780   1.084       .  S
