geometry optimzed in LAMMPS
_audit_creation_date              2020-11-30 
_audit_creation_method            'lammps2cif' 
_symmetry_space_group_name_H-M    'P1' 
_symmetry_Int_Tables_number       1 
_symmetry_cell_setting            triclinic 
loop_ 
_symmetry_equiv_pos_as_xyz 
  x,y,z 
_cell_length_a                    25.19061365 
_cell_length_b                    15.454737232659715 
_cell_length_c                    29.398184221601838 
_cell_angle_alpha                 75.63180258407682 
_cell_angle_beta                  59.68729060071912 
_cell_angle_gamma                 88.19478216326117 
loop_ 
_atom_site_label 
_atom_site_type_symbol 
_atom_site_fract_x 
_atom_site_fract_y 
_atom_site_fract_z 
_atom_site_charge 
O1          O  0.11052084  0.49817907  0.46268705    -0.69800
O2          O  0.44654027  0.08788279  0.49429263    -0.70700
O3          O  0.03671990  0.09669837  0.02870445    -0.59400
O4          O  0.03340438  0.98899966  0.42057376    -0.67800
O5          O  0.48670321  0.36217728  0.48276344    -0.67300
O6          O  0.48800399  0.46728785  0.09409327    -0.58600
O7          O  0.40117639  0.95512704  0.05732470    -0.71100
O8          O  0.06135903  0.36808467  0.02821716    -0.69900
Cu9        Cu  0.03641355  0.04475296  0.47269583     1.04600
Cu10       Cu  0.48617917  0.40789264  0.04156444     1.04300
C11         C  0.11161119  0.41702145  0.99128026     0.96400
C12         C  0.39691254  0.03706948  0.53208458     0.95600
C13         C  0.01250775  0.05085239  0.07833475     0.87700
C14         C  0.50916756  0.41262210  0.43405689     0.94000
N15         N  0.25501240  0.22417379  0.48908358    -0.00300
C16         C  0.26473496  0.14508767  0.02003723     0.02300
C17         C  0.22020998  0.08043317  0.53793676    -0.20600
C18         C  0.18555008  0.10864253  0.51428165    -0.20800
C19         C  0.20980021  0.19528936  0.48153945     0.02200
H20         H  0.21849467  0.01173754  0.55905177     0.16000
H21         H  0.15305275  0.06528068  0.51391716     0.16000
N22         N  0.28446880  0.30755647  0.97239184    -0.00300
C23         C  0.28112230  0.38747369  0.43774546     0.02300
C24         C  0.32324692  0.45106758  0.92511909    -0.20600
C25         C  0.34811285  0.42290862  0.95769826    -0.20800
C26         C  0.32197868  0.33608495  0.98806368     0.02200
H27         H  0.32691254  0.52011823  0.90291058     0.16000
H28         H  0.37582548  0.46544016  0.96376831     0.16000
O29         O  0.34927480  0.26909839  0.21021810    -0.69800
O30         O  0.19747649  0.11582464  0.25184880    -0.70700
O31         O  0.29095756  0.23329423  0.15364622    -0.59400
O32         O  0.25806797  0.15179708  0.30788101    -0.67800
O33         O  0.20435813  0.26659328  0.32960782    -0.67300
O34         O  0.23439591  0.34549434  0.17548726    -0.58600
O35         O  0.14234998  0.22862764  0.27542675    -0.71100
O36         O  0.29466471  0.38338788  0.23177988    -0.69900
Cu37       Cu  0.27572110  0.18853646  0.23022130     1.04600
Cu38       Cu  0.21686817  0.30997522  0.25363765     1.04300
C39         C  0.34515162  0.34769614  0.21759531     0.96400
C40         C  0.14605625  0.14948575  0.26871426     0.95600
C41         C  0.26643774  0.30135056  0.14067196     0.87700
C42         C  0.22951618  0.19856830  0.34182773     0.94000
N43         N  0.98799472  0.05563232  0.25628347    -0.00300
C44         C  0.99489380  0.12445350  0.27531343     0.02300
C45         C  0.99600690  0.20579164  0.24192805    -0.20600
C46         C  0.99580057  0.18887803  0.19885535    -0.20800
C47         C  0.99281178  0.09679003  0.20748684     0.02200
H48         H  0.00950394  0.27155515  0.24198933     0.16000
H49         H  0.00441326  0.23996361  0.16259667     0.16000
N50         N  0.45878070  0.46600691  0.28791509    -0.00300
C51         C  0.41965254  0.41477294  0.28277159     0.02300
C52         C  0.40232606  0.33091217  0.31947001    -0.20600
C53         C  0.43156383  0.32795431  0.34794540    -0.20800
C54         C  0.46463339  0.41139551  0.32926169     0.02200
H55         H  0.36969170  0.27832813  0.32621993     0.16000
H56         H  0.42418484  0.27342918  0.38246018     0.16000
C57         C  0.39766689  0.39043600  0.21593786    -0.13200
C58         C  0.38958328  0.44064048  0.24998422    -0.28400
H59         H  0.43918277  0.35660825  0.20090373     0.15800
H60         H  0.34737993  0.47245061  0.26787387     0.16400
C61         C  0.09231819  0.10053452  0.27474221    -0.13200
C62         C  0.03632189  0.13024776  0.29675863    -0.28400
H63         H  0.10155937  0.05118687  0.25169750     0.15800
H64         H  0.02832212  0.18087091  0.31880381     0.16400
C65         C  0.27286173  0.32833531  0.08589262    -0.13200
C66         C  0.31573109  0.30085578  0.04266734    -0.28400
H67         H  0.24120665  0.37318838  0.08073932     0.15800
H68         H  0.35024677  0.26051749  0.04607967     0.16400
C69         C  0.20752138  0.22468874  0.43018989    -0.13200
C70         C  0.22930890  0.17483320  0.39399356    -0.28400
H71         H  0.18318278  0.28091381  0.42388907     0.15800
H72         H  0.25149511  0.11630244  0.40151104     0.16400
C73         C  0.00560797  0.05171382  0.16467616    -0.13200
C74         C  0.00868568  0.09582368  0.11783366    -0.28400
H75         H  0.00712921  0.47934318  0.17288283     0.15800
H76         H  0.00611974  0.16755085  0.10798108     0.16400
C77         C  0.50258378  0.38221984  0.39372642    -0.13200
C78         C  0.48506288  0.43966181  0.36251086    -0.28400
H79         H  0.50500498  0.80545584  0.39745322     0.15800
H80         H  0.97801333  0.50053593  0.36784520     0.16400
C81         C  0.22389171  0.41128172  0.43817129    -0.13200
C82         C  0.16955720  0.38543455  0.98552759    -0.28400
H83         H  0.22703282  0.45374730  0.40123386     0.15800
H84         H  0.16717669  0.34329633  0.02225465     0.16400
C85         C  0.33518661  0.06442348  0.54498503    -0.13200
C86         C  0.32679206  0.12916029  0.01275706    -0.28400
H87         H  0.29527462  0.02082483  0.57998522     0.15800
H88         H  0.36667727  0.17250371  0.97754332     0.16400
O89         O  0.11123726  0.49354815  0.96213493    -0.69800
O90         O  0.44684646  0.08468841  0.99406865    -0.70700
O91         O  0.03563498  0.09434977  0.52880318    -0.59400
O92         O  0.03493534  0.99061229  0.92034917    -0.67800
O93         O  0.48882251  0.35870665  0.98306648    -0.67300
O94         O  0.48825281  0.46621985  0.59452367    -0.58600
O95         O  0.39959550  0.95946105  0.55834901    -0.71100
O96         O  0.06155783  0.37182109  0.52817283    -0.69900
Cu97       Cu  0.03779456  0.04667161  0.97254589     1.04600
Cu98       Cu  0.48521151  0.40905618  0.54157482     1.04300
C99         C  0.11147693  0.42156860  0.49143007     0.96400
C100        C  0.39767392  0.03271238  0.03160215     0.95600
C101        C  0.01194703  0.04823239  0.57832249     0.87700
C102        C  0.51172012  0.40841034  0.93413740     0.94000
N103        N  0.25428595  0.21861442  0.99014816    -0.00300
C104        C  0.26511470  0.15059210  0.51920767     0.02300
C105        C  0.21927173  0.07526286  0.03968744    -0.20600
C106        C  0.18380416  0.10362449  0.01685308    -0.20800
C107        C  0.20803708  0.19005462  0.98383443     0.02200
H108        H  0.21740055  0.00671603  0.06106633     0.16000
H109        H  0.15047681  0.06054927  0.01741139     0.16000
N110        N  0.28441859  0.31332415  0.47241182    -0.00300
C111        C  0.28110910  0.38137652  0.93755868     0.02300
C112        C  0.32238865  0.45750395  0.42639007    -0.20600
C113        C  0.34650829  0.42909744  0.45953037    -0.20800
C114        C  0.32084789  0.34185651  0.48915470     0.02200
H115        H  0.32578968  0.52673167  0.40457717     0.16000
H116        H  0.37364125  0.47147721  0.46621115     0.16000
O117        O  0.34911563  0.27321317  0.71069222    -0.69800
O118        O  0.19891139  0.11718148  0.75226206    -0.70700
O119        O  0.29074180  0.23706408  0.65440073    -0.59400
O120        O  0.25962143  0.15379717  0.80797756    -0.67800
O121        O  0.20387545  0.26614581  0.83142568    -0.67300
O122        O  0.23327861  0.34798320  0.67738674    -0.58600
O123        O  0.14245218  0.22843292  0.77677996    -0.71100
O124        O  0.29333121  0.38570858  0.73421607    -0.69900
Cu125      Cu  0.27639578  0.19147552  0.73062654     1.04600
Cu126      Cu  0.21609291  0.31104357  0.75556323     1.04300
C127        C  0.34428281  0.35101774  0.71914991     0.96400
C128        C  0.14708653  0.14965944  0.76945174     0.95600
C129        C  0.26553256  0.30471834  0.64206595     0.87700
C130        C  0.23018700  0.19890989  0.84272869     0.94000
N131        N  0.99041346  0.05466174  0.75515093    -0.00300
C132        C  0.99783676  0.12399406  0.77358712     0.02300
C133        C  0.00025494  0.20511918  0.73937040    -0.20600
C134        C  0.99989085  0.18751223  0.69655887    -0.20800
C135        C  0.99559284  0.09522423  0.70609917     0.02200
H136        H  0.01417055  0.27091280  0.73909422     0.16000
H137        H  0.00912388  0.23817281  0.65993920     0.16000
N138        N  0.46058489  0.46326200  0.78874843    -0.00300
C139        C  0.42027230  0.41323286  0.78434981     0.02300
C140        C  0.40372369  0.32865373  0.82020340    -0.20600
C141        C  0.43464716  0.32415815  0.84742449    -0.20800
C142        C  0.46791210  0.40742963  0.82888159     0.02200
H143        H  0.37053631  0.27661611  0.82727422     0.16000
H144        H  0.42807760  0.26880809  0.88127871     0.16000
C145        C  0.39680804  0.39346712  0.71754106    -0.13200
C146        C  0.38889066  0.44095539  0.75280967    -0.28400
H147        H  0.43854117  0.36022222  0.70134685     0.15800
H148        H  0.34622941  0.47113187  0.77225832     0.16400
C149        C  0.09401606  0.09991145  0.77496428    -0.13200
C150        C  0.03791998  0.12928884  0.79633598    -0.28400
H151        H  0.10399677  0.05073080  0.75170200     0.15800
H152        H  0.02921530  0.17983338  0.81853769     0.16400
C153        C  0.27148218  0.33216029  0.58742121    -0.13200
C154        C  0.31439221  0.30544207  0.54381813    -0.28400
H155        H  0.23943081  0.37657082  0.58273307     0.15800
H156        H  0.34917724  0.26540739  0.54691084     0.16400
C157        C  0.20452173  0.21955703  0.93318832    -0.13200
C158        C  0.23053760  0.17444492  0.89463818    -0.28400
H159        H  0.17593485  0.27131170  0.92947270     0.15800
H160        H  0.25633127  0.11943222  0.90015082     0.16400
C161        C  0.00720356  0.04939454  0.66386734    -0.13200
C162        C  0.00874265  0.09306059  0.61763204    -0.28400
H163        H  0.00974013  0.48014498  0.67171406     0.15800
H164        H  0.00547853  0.16460219  0.60805618     0.16400
C165        C  0.50557988  0.37728694  0.89377247    -0.13200
C166        C  0.48879355  0.43495460  0.86202457    -0.28400
H167        H  0.50794613  0.80550532  0.89501948     0.15800
H168        H  0.97806278  0.49557788  0.86814778     0.16400
C169        C  0.22382173  0.40557880  0.93810234    -0.13200
C170        C  0.16961379  0.39062404  0.48554769    -0.28400
H171        H  0.22700870  0.44864890  0.90127268     0.15800
H172        H  0.16736890  0.34854985  0.52223198     0.16400
C173        C  0.33561268  0.05897433  0.04485697    -0.13200
C174        C  0.32689025  0.13481560  0.51263193    -0.28400
H175        H  0.29598254  0.01516913  0.08003916     0.15800
H176        H  0.36698529  0.17814397  0.47767545     0.16400
O177        O  0.11655663  0.99306840  0.45823612    -0.69800
O178        O  0.45326958  0.58792102  0.49294434    -0.70700
O179        O  0.02926183  0.59548554  0.03189405    -0.59400
O180        O  0.02980646  0.49278305  0.42306211    -0.67800
O181        O  0.48281916  0.86076647  0.48568579    -0.67300
O182        O  0.48240347  0.96791995  0.09566310    -0.58600
O183        O  0.40606497  0.45677889  0.05585643    -0.71100
O184        O  0.06756152  0.86855838  0.02408762    -0.69900
Cu185      Cu  0.03028171  0.54855512  0.47624550     1.04600
Cu186      Cu  0.48186330  0.90862073  0.04276076     1.04300
C187        C  0.11797224  0.91715483  0.98710839     0.96400
C188        C  0.40331661  0.53769144  0.53054303     0.95600
C189        C  0.00432877  0.54956140  0.08157709     0.87700
C190        C  0.50580246  0.90990249  0.43661341     0.94000
N191        N  0.26806966  0.72807337  0.48112374    -0.00300
C192        C  0.27415690  0.65400481  0.01513666     0.02300
C193        C  0.22888980  0.58734016  0.53358682    -0.20600
C194        C  0.19860634  0.61337065  0.50555388    -0.20800
C195        C  0.22704566  0.69715478  0.46971088     0.02200
H196        H  0.22380940  0.52020254  0.55821616     0.16000
H197        H  0.16517467  0.57013365  0.50631921     0.16000
N198        N  0.29503376  0.81621231  0.96646528    -0.00300
C199        C  0.28849919  0.89330545  0.43407252     0.02300
C200        C  0.33071586  0.96154840  0.92238938    -0.20600
C201        C  0.35685718  0.93192325  0.95368308    -0.20800
C202        C  0.33279275  0.84384875  0.98208609     0.02200
H203        H  0.33369485  0.03103344  0.90139253     0.16000
H204        H  0.38456329  0.97390745  0.95993969     0.16000
O205        O  0.34864776  0.75945369  0.21100479    -0.69800
O206        O  0.19738812  0.61305388  0.24640180    -0.70700
O207        O  0.29488604  0.72927397  0.14983296    -0.59400
O208        O  0.25264531  0.64404976  0.30698983    -0.67800
O209        O  0.20398924  0.76435419  0.32523019    -0.67300
O210        O  0.23832226  0.84189885  0.17065665    -0.58600
O211        O  0.14374604  0.72720025  0.26977272    -0.71100
O212        O  0.29674616  0.87747994  0.22863583    -0.69900
Cu213      Cu  0.27526303  0.68242549  0.22785107     1.04600
Cu214      Cu  0.21871860  0.80675706  0.24901006     1.04300
C215        C  0.34576488  0.83876076  0.21719759     0.96400
C216        C  0.14651809  0.64809177  0.26304671     0.95600
C217        C  0.27129780  0.79797974  0.13610047     0.87700
C218        C  0.22504807  0.69318756  0.33965021     0.94000
N219        N  0.98423001  0.54977865  0.25806556    -0.00300
C220        C  0.99008113  0.61851891  0.27756221     0.02300
C221        C  0.98338451  0.69869928  0.24836616    -0.20600
C222        C  0.97974370  0.68194206  0.20674321    -0.20800
C223        C  0.98299818  0.59102321  0.21206803     0.02200
H224        H  0.99492762  0.76521191  0.24873301     0.16000
H225        H  0.98255871  0.73324393  0.17289418     0.16000
N226        N  0.46002890  0.95614966  0.28803764    -0.00300
C227        C  0.42220967  0.90249125  0.28282091     0.02300
C228        C  0.40860231  0.81757505  0.31775099    -0.20600
C229        C  0.43862476  0.81665282  0.34540381    -0.20800
C230        C  0.46861563  0.90217862  0.32793682     0.02200
H231        H  0.37754236  0.76294684  0.32420693     0.16000
H232        H  0.43345716  0.76153480  0.37876838     0.16000
C233        C  0.39787494  0.87903947  0.21706249    -0.13200
C234        C  0.38942624  0.92686866  0.25230878    -0.28400
H235        H  0.43962065  0.84593419  0.20107519     0.15800
H236        H  0.34689133  0.95748455  0.27137824     0.16400
C237        C  0.09199877  0.60022586  0.26977031    -0.13200
C238        C  0.03611676  0.62977897  0.29349513    -0.28400
H239        H  0.09983183  0.54980644  0.24766169     0.15800
H240        H  0.02948120  0.68117678  0.31479158     0.16400
C241        C  0.27930097  0.82603201  0.08088350    -0.13200
C242        C  0.32656988  0.80703518  0.03648646    -0.28400
H243        H  0.24529845  0.86591890  0.07624928     0.15800
H244        H  0.36350646  0.77259062  0.03920934     0.16400
C245        C  0.22974912  0.72665928  0.41589197    -0.13200
C246        C  0.21844218  0.66728177  0.39413880    -0.28400
H247        H  0.24795495  0.79416414  0.38997734     0.15800
H248        H  0.21074948  0.59640005  0.41398511     0.16400
C249        C  0.99734521  0.54879970  0.16780927    -0.13200
C250        C  0.99938942  0.59392352  0.12162556    -0.28400
H251        H  0.01270662  0.98118523  0.17162841     0.15800
H252        H  0.99529093  0.66526183  0.11282854     0.16400
C253        C  0.50214625  0.87627729  0.39581208    -0.13200
C254        C  0.48809767  0.93231208  0.36137900    -0.28400
H255        H  0.50644897  0.31233073  0.39301351     0.15800
H256        H  0.97423941  0.00187861  0.37046683     0.16400
C257        C  0.23045520  0.91509116  0.43494857    -0.13200
C258        C  0.17598332  0.88386495  0.98055335    -0.28400
H259        H  0.23332843  0.96625372  0.40069951     0.15800
H260        H  0.17303418  0.83419638  0.01537379     0.16400
C261        C  0.34208337  0.56690438  0.54313315    -0.13200
C262        C  0.33511816  0.63521311  0.00977915    -0.28400
H263        H  0.30157795  0.52408006  0.57787601     0.15800
H264        H  0.37589853  0.67797866  0.97534578     0.16400
O265        O  0.11775277  0.99451419  0.95850378    -0.69800
O266        O  0.45353153  0.58472667  0.99146803    -0.70700
O267        O  0.02748288  0.59823770  0.53317516    -0.59400
O268        O  0.03034733  0.48831525  0.92275532    -0.67800
O269        O  0.48620359  0.85920337  0.98369395    -0.67300
O270        O  0.48148629  0.97069962  0.59623824    -0.58600
O271        O  0.40535039  0.45953482  0.55673779    -0.71100
O272        O  0.06676282  0.86668771  0.52355365    -0.69900
Cu273      Cu  0.03155497  0.54517180  0.97530106     1.04600
Cu274      Cu  0.47951839  0.91074389  0.54418097     1.04300
C275        C  0.11704958  0.91569518  0.48662885     0.96400
C276        C  0.40372568  0.53430490  0.02920029     0.95600
C277        C  0.00306071  0.55145036  0.58260907     0.87700
C278        C  0.50864195  0.90912018  0.93487538     0.94000
N279        N  0.26734826  0.72639796  0.98185510    -0.00300
C280        C  0.27456148  0.65626738  0.51490454     0.02300
C281        C  0.22820627  0.58537135  0.03394974    -0.20600
C282        C  0.19751162  0.61211053  0.00634932    -0.20800
C283        C  0.22589194  0.69605983  0.97072087     0.02200
H284        H  0.22327850  0.51785501  0.05816974     0.16000
H285        H  0.16408524  0.56908306  0.00692477     0.16000
N286        N  0.29475843  0.81827058  0.46632280    -0.00300
C287        C  0.28919819  0.89164123  0.93414900     0.02300
C288        C  0.32900908  0.96412712  0.42294334    -0.20600
C289        C  0.35488549  0.93529188  0.45454121    -0.20800
C290        C  0.33166463  0.84681665  0.48253132     0.02200
H291        H  0.33140147  0.03351996  0.40212714     0.16000
H292        H  0.38191953  0.97784948  0.46116003     0.16000
O293        O  0.34922732  0.76157496  0.71078777    -0.69800
O294        O  0.19902979  0.61313926  0.74616690    -0.70700
O295        O  0.29524658  0.73147267  0.64978380    -0.59400
O296        O  0.25397717  0.64464255  0.80674308    -0.67800
O297        O  0.20408100  0.76367178  0.82587697    -0.67300
O298        O  0.23786073  0.84298456  0.67156496    -0.58600
O299        O  0.14419685  0.72595390  0.77033925    -0.71100
O300        O  0.29641963  0.87848578  0.72947546    -0.69900
Cu301      Cu  0.27628325  0.68375734  0.72763731     1.04600
Cu302      Cu  0.21863004  0.80679980  0.74978175     1.04300
C303        C  0.34586948  0.84060018  0.71739926     0.96400
C304        C  0.14774669  0.64700395  0.76324343     0.95600
C305        C  0.27108135  0.79992003  0.63657750     0.87700
C306        C  0.22562869  0.69277391  0.83989909     0.94000
N307        N  0.98568189  0.54686601  0.75847696    -0.00300
C308        C  0.99116004  0.61448275  0.77895653     0.02300
C309        C  0.98450227  0.69540574  0.75039042    -0.20600
C310        C  0.98149166  0.68040086  0.70811901    -0.20800
C311        C  0.98470137  0.58969673  0.71259297     0.02200
H312        H  0.99595246  0.76137535  0.75150351     0.16000
H313        H  0.98484256  0.73267088  0.67441287     0.16000
N314        N  0.46085280  0.95739564  0.78755626    -0.00300
C315        C  0.42216009  0.90462654  0.78279021     0.02300
C316        C  0.40788202  0.81978656  0.81796832    -0.20600
C317        C  0.43844419  0.81796687  0.84525812    -0.20800
C318        C  0.46944165  0.90288190  0.82730219     0.02200
H319        H  0.37620622  0.76577763  0.82469816     0.16000
H320        H  0.43309502  0.76281966  0.87869811     0.16000
C321        C  0.39807820  0.88134703  0.71693948    -0.13200
C322        C  0.38978485  0.92957232  0.75195673    -0.28400
H323        H  0.43975002  0.84794653  0.70112606     0.15800
H324        H  0.34731704  0.96037650  0.77089443     0.16400
C325        C  0.09365604  0.59787828  0.77001452    -0.13200
C326        C  0.03717890  0.62504667  0.79503205    -0.28400
H327        H  0.10212825  0.54894052  0.74683411     0.15800
H328        H  0.02990721  0.67491140  0.81746711     0.16400
C329        C  0.27875648  0.82878897  0.58145825    -0.13200
C330        C  0.32559798  0.80959749  0.53687878    -0.28400
H331        H  0.24487021  0.86938263  0.57708630     0.15800
H332        H  0.36239297  0.77448154  0.53944073     0.16400
C333        C  0.22853057  0.72567266  0.91697124    -0.13200
C334        C  0.21875596  0.66613420  0.89449136    -0.28400
H335        H  0.24546714  0.79368668  0.89163645     0.15800
H336        H  0.21209268  0.59500061  0.91378915     0.16400
C337        C  0.99876897  0.54907661  0.66783553    -0.13200
C338        C  0.99834778  0.59476150  0.62293337    -0.28400
H339        H  0.01456490  0.97896685  0.67075076     0.15800
H340        H  0.99241987  0.66556302  0.61547589     0.16400
C341        C  0.50485616  0.87613828  0.89390824    -0.13200
C342        C  0.48979868  0.93240002  0.86031801    -0.28400
H343        H  0.50879360  0.30711584  0.89362201     0.15800
H344        H  0.97540420  0.00208462  0.87026428     0.16400
C345        C  0.23120653  0.91513047  0.93539055    -0.13200
C346        C  0.17524548  0.88310199  0.48002078    -0.28400
H347        H  0.23426873  0.96682696  0.90124260     0.15800
H348        H  0.17246548  0.83383035  0.51489536     0.16400
C349        C  0.34231819  0.56282585  0.04177921    -0.13200
C350        C  0.33526467  0.63806410  0.51016623    -0.28400
H351        H  0.30200188  0.51927668  0.07624270     0.15800
H352        H  0.37618752  0.68006834  0.47539141     0.16400
O353        O  0.61710370  0.49369759  0.45851691    -0.69800
O354        O  0.95220444  0.08567057  0.49257354    -0.70700
O355        O  0.52890471  0.09658238  0.03144235    -0.59400
O356        O  0.52920506  0.99064197  0.42272294    -0.67800
O357        O  0.98424762  0.36187215  0.48515660    -0.67300
O358        O  0.98094353  0.46813503  0.09686845    -0.58600
O359        O  0.90588671  0.96021386  0.05670644    -0.71100
O360        O  0.56829002  0.36761056  0.02444407    -0.69900
Cu361      Cu  0.53088474  0.04747520  0.47505041     1.04600
Cu362      Cu  0.97972618  0.40852604  0.04436316     1.04300
C363        C  0.61846218  0.41703042  0.98770579     0.96400
C364        C  0.90230441  0.03579556  0.53066979     0.95600
C365        C  0.50476301  0.04976623  0.08087537     0.87700
C366        C  0.00704892  0.41189392  0.43630557     0.94000
N367        N  0.76750651  0.22784913  0.48164722    -0.00300
C368        C  0.77484473  0.15735037  0.01540683     0.02300
C369        C  0.72715231  0.08785055  0.53493143    -0.20600
C370        C  0.69730123  0.11389234  0.50648663    -0.20800
C371        C  0.72642242  0.19716839  0.47023505     0.02200
H372        H  0.72141359  0.02089832  0.56008704     0.16000
H373        H  0.66366705  0.07084701  0.50733206     0.16000
N374        N  0.79599348  0.31896925  0.96613009    -0.00300
C375        C  0.78867107  0.39292484  0.43403300     0.02300
C376        C  0.83076004  0.46455332  0.92244087    -0.20600
C377        C  0.85646422  0.43564592  0.95416793    -0.20800
C378        C  0.83285467  0.34737185  0.98241205     0.02200
H379        H  0.83339674  0.53394684  0.90148775     0.16000
H380        H  0.88368638  0.47810555  0.96062196     0.16000
O381        O  0.84746798  0.26197714  0.21185544    -0.69800
O382        O  0.69735788  0.11408121  0.24664427    -0.70700
O383        O  0.79408206  0.23192986  0.15034299    -0.59400
O384        O  0.75199143  0.14541751  0.30747367    -0.67800
O385        O  0.70217977  0.26463251  0.32632233    -0.67300
O386        O  0.73706659  0.34397271  0.17159576    -0.58600
O387        O  0.64274587  0.22734439  0.27023978    -0.71100
O388        O  0.79479012  0.37908434  0.23031173    -0.69900
Cu389      Cu  0.77461198  0.18439118  0.22834054     1.04600
Cu390      Cu  0.71717075  0.30778669  0.25005820     1.04300
C391        C  0.84402254  0.34083400  0.21873445     0.96400
C392        C  0.64620021  0.14826319  0.26335350     0.95600
C393        C  0.77038243  0.30066837  0.13677583     0.87700
C394        C  0.72373075  0.19381949  0.34046095     0.94000
N395        N  0.48519710  0.04776624  0.25755034    -0.00300
C396        C  0.49037545  0.11600983  0.27771347     0.02300
C397        C  0.48430303  0.19656545  0.24839618    -0.20600
C398        C  0.48186749  0.18060800  0.20606761    -0.20800
C399        C  0.48480968  0.08972009  0.21121847     0.02200
H400        H  0.49574669  0.26280087  0.24918569     0.16000
H401        H  0.48576351  0.23236336  0.17191940     0.16000
N402        N  0.95871136  0.45853615  0.28922043    -0.00300
C403        C  0.91995188  0.40486150  0.28501758     0.02300
C404        C  0.90645465  0.32022049  0.32020037    -0.20600
C405        C  0.93749840  0.31949737  0.34697583    -0.20800
C406        C  0.96804242  0.40486995  0.32872776     0.02200
H407        H  0.87501642  0.26556337  0.32726017     0.16000
H408        H  0.93276852  0.26462652  0.38027195     0.16000
C409        C  0.89574969  0.38084275  0.21926048    -0.13200
C410        C  0.88701831  0.42868658  0.25458263    -0.28400
H411        H  0.93750638  0.34770877  0.20346000     0.15800
H412        H  0.84435526  0.45902272  0.27363194     0.16400
C413        C  0.59220899  0.09928849  0.26991631    -0.13200
C414        C  0.53582137  0.12695493  0.29431283    -0.28400
H415        H  0.60078724  0.04986813  0.24702533     0.15800
H416        H  0.52840022  0.17735541  0.31642735     0.16400
C417        C  0.77882488  0.32963105  0.08137182    -0.13200
C418        C  0.82617849  0.31055599  0.03702324    -0.28400
H419        H  0.74516338  0.37023789  0.07656420     0.15800
H420        H  0.86274363  0.27542477  0.04003032     0.16400
C421        C  0.72929129  0.22660352  0.41636201    -0.13200
C422        C  0.71694921  0.16758996  0.39500013    -0.28400
H423        H  0.74853836  0.29365755  0.39002546     0.15800
H424        H  0.70842602  0.09670368  0.41512173     0.16400
C425        C  0.49915006  0.04816683  0.16669828    -0.13200
C426        C  0.49960724  0.09342362  0.12125495    -0.28400
H427        H  0.51347746  0.48067904  0.17089548     0.15800
H428        H  0.49398948  0.16430685  0.11334687     0.16400
C429        C  0.00360969  0.37911233  0.39514978    -0.13200
C430        C  0.98883970  0.43525973  0.36127334    -0.28400
H431        H  0.00305196  0.80843520  0.39491147     0.15800
H432        H  0.47285128  0.50359735  0.37117884     0.16400
C433        C  0.73067227  0.41467072  0.43489170    -0.13200
C434        C  0.67676139  0.38476132  0.98087507    -0.28400
H435        H  0.73354280  0.46534552  0.40046610     0.15800
H436        H  0.67429726  0.33560936  0.01565196     0.16400
C437        C  0.84097825  0.06506353  0.54349217    -0.13200
C438        C  0.83558108  0.13878487  0.01047017    -0.28400
H439        H  0.80049760  0.02221588  0.57823692     0.15800
H440        H  0.87647312  0.18096551  0.97578262     0.16400
O441        O  0.61782001  0.49431035  0.95932901    -0.69800
O442        O  0.95373825  0.08784873  0.99211863    -0.70700
O443        O  0.52940094  0.09809503  0.53120155    -0.59400
O444        O  0.53120514  0.99020127  0.92152340    -0.67800
O445        O  0.98347948  0.35859048  0.98572587    -0.67300
O446        O  0.98021197  0.46985652  0.59742793    -0.58600
O447        O  0.90449431  0.95809228  0.55723863    -0.71100
O448        O  0.56710452  0.36717817  0.52363073    -0.69900
Cu449      Cu  0.53175964  0.04667158  0.97449978     1.04600
Cu450      Cu  0.97964801  0.41073964  0.54449189     1.04300
C451        C  0.61744224  0.41608204  0.48676781     0.96400
C452        C  0.90380988  0.03795586  0.03015185     0.95600
C453        C  0.50516574  0.05200328  0.58077555     0.87700
C454        C  0.00679920  0.40764736  0.93661821     0.94000
N455        N  0.76867014  0.22901912  0.98137308    -0.00300
C456        C  0.77342549  0.15612533  0.51586148     0.02300
C457        C  0.72890997  0.08870098  0.03428621    -0.20600
C458        C  0.69899009  0.11454381  0.00590500    -0.20800
C459        C  0.72770746  0.19809348  0.96987343     0.02200
H460        H  0.72346105  0.02173619  0.05926897     0.16000
H461        H  0.66568672  0.07123864  0.00649038     0.16000
N462        N  0.79494017  0.31781396  0.46623591    -0.00300
C463        C  0.78994286  0.39399254  0.93378210     0.02300
C464        C  0.82916994  0.46375449  0.42289708    -0.20600
C465        C  0.85518853  0.43480600  0.45436624    -0.20800
C466        C  0.83195927  0.34631446  0.48234447     0.02200
H467        H  0.83144881  0.53319185  0.40218130     0.16000
H468        H  0.88228860  0.47730281  0.46095035     0.16000
O469        O  0.84961572  0.25962305  0.71051239    -0.69800
O470        O  0.69907616  0.11166564  0.74613468    -0.70700
O471        O  0.79531324  0.22965738  0.64961838    -0.59400
O472        O  0.75454215  0.14317045  0.80659036    -0.67800
O473        O  0.70534286  0.26282878  0.82541004    -0.67300
O474        O  0.73792338  0.34113663  0.67146947    -0.58600
O475        O  0.64463141  0.22470194  0.77053036    -0.71100
O476        O  0.79715497  0.37694854  0.72885881    -0.69900
Cu477      Cu  0.77652527  0.18201003  0.72747123     1.04600
Cu478      Cu  0.71923993  0.30536768  0.74953001     1.04300
C479        C  0.84639192  0.33864579  0.71712879     0.96400
C480        C  0.64792083  0.14588702  0.76330572     0.95600
C481        C  0.77107737  0.29806824  0.63646729     0.87700
C482        C  0.72699341  0.19208604  0.83944644     0.94000
N483        N  0.48652015  0.04886645  0.75707852    -0.00300
C484        C  0.49224923  0.11672338  0.77724688     0.02300
C485        C  0.48677620  0.19775885  0.74788596    -0.20600
C486        C  0.48403502  0.18239251  0.70557483    -0.20800
C487        C  0.48637497  0.09139206  0.71071934     0.02200
H488        H  0.49865292  0.26374309  0.74871075     0.16000
H489        H  0.48792809  0.23453070  0.67156110     0.16000
N490        N  0.96043023  0.45512152  0.78858779    -0.00300
C491        C  0.92252906  0.40182026  0.78321273     0.02300
C492        C  0.90887067  0.31670378  0.81795947    -0.20600
C493        C  0.93885608  0.31531519  0.84568504    -0.20800
C494        C  0.96901040  0.40067358  0.82833382     0.02200
H495        H  0.87780918  0.26224469  0.82423994     0.16000
H496        H  0.93368403  0.25996158  0.87894304     0.16000
C497        C  0.89838169  0.37879518  0.71724671    -0.13200
C498        C  0.88983883  0.42645637  0.75260883    -0.28400
H499        H  0.94012467  0.34561204  0.70131616     0.15800
H500        H  0.84731911  0.45711203  0.77163455     0.16400
C501        C  0.59368943  0.09759416  0.76990906    -0.13200
C502        C  0.53762149  0.12631738  0.79408855    -0.28400
H503        H  0.60191307  0.04828738  0.74700247     0.15800
H504        H  0.53057899  0.17660463  0.81620032     0.16400
C505        C  0.77867378  0.32698096  0.58138180    -0.13200
C506        C  0.82602290  0.30902829  0.53661474    -0.28400
H507        H  0.74441362  0.36684145  0.57716620     0.15800
H508        H  0.86318326  0.27478234  0.53900393     0.16400
C509        C  0.73067372  0.22691955  0.91592782    -0.13200
C510        C  0.72112066  0.16662843  0.89370953    -0.28400
H511        H  0.74701376  0.29510175  0.89061802     0.15800
H512        H  0.71480786  0.09574116  0.91327715     0.16400
C513        C  0.50025580  0.05000051  0.66627565    -0.13200
C514        C  0.50154695  0.09584513  0.62055618    -0.28400
H515        H  0.51406362  0.47762938  0.67205889     0.15800
H516        H  0.49751443  0.16722316  0.61212703     0.16400
C517        C  0.00310387  0.37414090  0.89581190    -0.13200
C518        C  0.98890316  0.43036558  0.86159249    -0.28400
H519        H  0.00536003  0.80944813  0.89465971     0.15800
H520        H  0.47701561  0.49904883  0.87046398     0.16400
C521        C  0.73168079  0.41626848  0.93534095    -0.13200
C522        C  0.67553804  0.38322697  0.48013296    -0.28400
H523        H  0.73423216  0.46737790  0.90120770     0.15800
H524        H  0.67277827  0.33437381  0.51514017     0.16400
C525        C  0.84252346  0.06711473  0.04300577    -0.13200
C526        C  0.83411964  0.13689608  0.51092778    -0.28400
H527        H  0.80209352  0.02414032  0.07773250     0.15800
H528        H  0.87508367  0.17885265  0.47619178     0.16400
O529        O  0.61065983  0.99582598  0.46155796    -0.69800
O530        O  0.94563106  0.58745249  0.49541929    -0.70700
O531        O  0.53505259  0.59518877  0.02927465    -0.59400
O532        O  0.53431127  0.49220680  0.42030124    -0.67800
O533        O  0.98541658  0.85969124  0.48365396    -0.67300
O534        O  0.98898540  0.96940210  0.09385553    -0.58600
O535        O  0.89998200  0.45789215  0.05800361    -0.71100
O536        O  0.56417432  0.87092083  0.02588166    -0.69900
Cu537      Cu  0.53721810  0.54625231  0.47310386     1.04600
Cu538      Cu  0.98572812  0.91023140  0.04172184     1.04300
C539        C  0.61382665  0.92130816  0.98915278     0.96400
C540        C  0.89621411  0.53571263  0.53268475     0.95600
C541        C  0.51069839  0.54909685  0.07884961     0.87700
C542        C  0.00790316  0.90948652  0.43477863     0.94000
N543        N  0.75455562  0.72189934  0.48876930    -0.00300
C544        C  0.76663512  0.65179546  0.01848445     0.02300
C545        C  0.71960504  0.57815997  0.53772196    -0.20600
C546        C  0.68510574  0.60638305  0.51391184    -0.20800
C547        C  0.70940171  0.69299591  0.48115365     0.02200
H548        H  0.71775775  0.50949180  0.55898481     0.16000
H549        H  0.65246981  0.56315925  0.51369878     0.16000
N550        N  0.78697114  0.81422027  0.97025342    -0.00300
C551        C  0.78072573  0.88538908  0.43750650     0.02300
C552        C  0.82441438  0.95862669  0.92414372    -0.20600
C553        C  0.84859065  0.93078595  0.95726820    -0.20800
C554        C  0.82335382  0.84335731  0.98684084     0.02200
H555        H  0.82750740  0.02775554  0.90234477     0.16000
H556        H  0.87533027  0.97367968  0.96407704     0.16000
O557        O  0.84871795  0.77381524  0.20967472    -0.69800
O558        O  0.69891167  0.61831343  0.24957548    -0.70700
O559        O  0.79151537  0.73862673  0.15234662    -0.59400
O560        O  0.75831134  0.65355202  0.30647790    -0.67800
O561        O  0.70347209  0.76689433  0.32941137    -0.67300
O562        O  0.73359850  0.84918769  0.17520283    -0.58600
O563        O  0.64243946  0.72939493  0.27444592    -0.71100
O564        O  0.79300984  0.88674121  0.23227957    -0.69900
Cu565      Cu  0.77618695  0.69222671  0.22879694     1.04600
Cu566      Cu  0.71597961  0.81199807  0.25344973     1.04300
C567        C  0.84390242  0.85203151  0.21760762     0.96400
C568        C  0.64704539  0.65069524  0.26701611     0.95600
C569        C  0.76642462  0.80628837  0.13985144     0.87700
C570        C  0.72903705  0.69894398  0.34109634     0.94000
N571        N  0.48813894  0.55544713  0.25567531    -0.00300
C572        C  0.49639277  0.62449063  0.27389758     0.02300
C573        C  0.49885852  0.70580500  0.23978640    -0.20600
C574        C  0.49768889  0.68844485  0.19725213    -0.20800
C575        C  0.49285850  0.59618506  0.20688202     0.02200
H576        H  0.51358223  0.77136240  0.23918313     0.16000
H577        H  0.50728892  0.73906040  0.16049165     0.16000
N578        N  0.95796451  0.96641770  0.28832335    -0.00300
C579        C  0.91811039  0.91674010  0.28318655     0.02300
C580        C  0.90057277  0.83235644  0.31935288    -0.20600
C581        C  0.93036850  0.82753474  0.34752568    -0.20800
C582        C  0.96399528  0.91042236  0.32920385     0.02200
H583        H  0.86755838  0.78059322  0.32588431     0.16000
H584        H  0.92298080  0.77213731  0.38165240     0.16000
C585        C  0.89633984  0.89532071  0.21576516    -0.13200
C586        C  0.88819241  0.94434866  0.25038126    -0.28400
H587        H  0.93797446  0.86172547  0.20033178     0.15800
H588        H  0.84576948  0.97548819  0.26881252     0.16400
C589        C  0.59371753  0.60079663  0.27304066    -0.13200
C590        C  0.53733112  0.62904478  0.29586895    -0.28400
H591        H  0.60342693  0.55252487  0.24923444     0.15800
H592        H  0.52887209  0.67870253  0.31861996     0.16400
C593        C  0.77318934  0.83403656  0.08495805    -0.13200
C594        C  0.81667314  0.80754835  0.04155118    -0.28400
H595        H  0.74119613  0.87818275  0.07992718     0.15800
H596        H  0.85135281  0.76764117  0.04495407     0.16400
C597        C  0.70678100  0.72292213  0.42997078    -0.13200
C598        C  0.72854773  0.67377411  0.39340675    -0.28400
H599        H  0.68241746  0.77924267  0.42392484     0.15800
H600        H  0.75084988  0.61515815  0.40055253     0.16400
C601        C  0.50494806  0.55067309  0.16449578    -0.13200
C602        C  0.50582312  0.59408665  0.11858373    -0.28400
H603        H  0.50975588  0.97906640  0.17112649     0.15800
H604        H  0.50103318  0.66521178  0.10957486     0.16400
C605        C  0.00082429  0.87879793  0.39471291    -0.13200
C606        C  0.98494230  0.93726964  0.36251525    -0.28400
H607        H  0.00653168  0.30839259  0.39649849     0.15800
H608        H  0.47712356  0.99757324  0.36782478     0.16400
C609        C  0.72361537  0.90954978  0.43781926    -0.13200
C610        C  0.67211784  0.89153201  0.98335398    -0.28400
H611        H  0.72698921  0.95339613  0.40110772     0.15800
H612        H  0.67009106  0.85069610  0.02021346     0.16400
C613        C  0.83438547  0.56228485  0.54528124    -0.13200
C614        C  0.82828038  0.63514605  0.01208869    -0.28400
H615        H  0.79448208  0.51850713  0.58017340     0.15800
H616        H  0.86858920  0.67818251  0.97721104     0.16400
O617        O  0.61245238  0.99766610  0.96046548    -0.69800
O618        O  0.94752689  0.58611236  0.99394983    -0.70700
O619        O  0.53616429  0.59406306  0.52993882    -0.59400
O620        O  0.53649293  0.48832462  0.92018223    -0.67800
O621        O  0.98695313  0.86140748  0.98351665    -0.67300
O622        O  0.98839192  0.96680523  0.59386909    -0.58600
O623        O  0.89928834  0.45802548  0.55860386    -0.71100
O624        O  0.56108013  0.87043316  0.52775788    -0.69900
Cu625      Cu  0.53771564  0.54489056  0.97272131     1.04600
Cu626      Cu  0.98463524  0.90810710  0.54177122     1.04300
C627        C  0.61120781  0.91942753  0.49072319     0.96400
C628        C  0.89768785  0.53575712  0.03167394     0.95600
C629        C  0.51189197  0.54747304  0.57942651     0.87700
C630        C  0.00954248  0.91099636  0.93457285     0.94000
N631        N  0.75693231  0.72516639  0.98786562    -0.00300
C632        C  0.76450960  0.64827905  0.51902585     0.02300
C633        C  0.72094329  0.58225198  0.03811671    -0.20600
C634        C  0.68607276  0.61049554  0.01468432    -0.20800
C635        C  0.71094191  0.69650543  0.98122670     0.02200
H636        H  0.71858529  0.51374394  0.05988913     0.16000
H637        H  0.65276161  0.56746174  0.01513629     0.16000
N638        N  0.78400286  0.81106084  0.47209884    -0.00300
C639        C  0.78345329  0.88813247  0.93553589     0.02300
C640        C  0.82205807  0.95530450  0.42616534    -0.20600
C641        C  0.84622465  0.92671977  0.45922856    -0.20800
C642        C  0.82053516  0.83946492  0.48878033     0.02200
H643        H  0.82547067  0.02458816  0.40442316     0.16000
H644        H  0.87330334  0.96904144  0.46600973     0.16000
O645        O  0.84963059  0.77328899  0.70965675    -0.69800
O646        O  0.69901926  0.61739603  0.75175478    -0.70700
O647        O  0.79083073  0.73684600  0.65370328    -0.59400
O648        O  0.75998830  0.65435866  0.80715567    -0.67800
O649        O  0.70516564  0.76783143  0.82985770    -0.67300
O650        O  0.73328819  0.84778773  0.67647124    -0.58600
O651        O  0.64272159  0.72875901  0.77632839    -0.71100
O652        O  0.79422568  0.88649684  0.73222941    -0.69900
Cu653      Cu  0.77666769  0.69159999  0.72984853     1.04600
Cu654      Cu  0.71671096  0.81166223  0.75432765     1.04300
C655        C  0.84504584  0.85152553  0.71753076     0.96400
C656        C  0.64717821  0.64984636  0.76919191     0.95600
C657        C  0.76554128  0.80433775  0.64129522     0.87700
C658        C  0.73115362  0.70042439  0.84145914     0.94000
N659        N  0.48994518  0.55269792  0.75658566    -0.00300
C660        C  0.49667419  0.62200340  0.77536657     0.02300
C661        C  0.49750178  0.70298649  0.74188603    -0.20600
C662        C  0.49683266  0.68546064  0.69917881    -0.20800
C663        C  0.49408719  0.59331642  0.70799351     0.02200
H664        H  0.51095214  0.76898787  0.74166313     0.16000
H665        H  0.50499144  0.73630328  0.66299425     0.16000
N666        N  0.96006504  0.96576613  0.78769404    -0.00300
C667        C  0.91986316  0.91603478  0.78296200     0.02300
C668        C  0.90199653  0.83206386  0.81958626    -0.20600
C669        C  0.93193435  0.82755688  0.84763684    -0.20800
C670        C  0.96596044  0.91025146  0.82882093     0.02200
H671        H  0.86863441  0.78042629  0.82653699     0.16000
H672        H  0.92435332  0.77262531  0.88203857     0.16000
C673        C  0.89760293  0.89426973  0.71581177    -0.13200
C674        C  0.88972611  0.94344789  0.75029662    -0.28400
H675        H  0.93904699  0.86024536  0.70053619     0.15800
H676        H  0.84744169  0.97490513  0.76867163     0.16400
C677        C  0.59384419  0.59973360  0.77529512    -0.13200
C678        C  0.53759776  0.62860754  0.79717588    -0.28400
H679        H  0.60358990  0.55025418  0.75226046     0.15800
H680        H  0.52908520  0.67942734  0.81917193     0.16400
C681        C  0.77155671  0.83154044  0.58667207    -0.13200
C682        C  0.81381919  0.80329764  0.54351121    -0.28400
H683        H  0.74024200  0.87711716  0.58156364     0.15800
H684        H  0.84797169  0.76216469  0.54699120     0.16400
C685        C  0.70800573  0.72515068  0.93026746    -0.13200
C686        C  0.73165890  0.67692511  0.89325882    -0.28400
H687        H  0.68131440  0.77888848  0.92519239     0.15800
H688        H  0.75566262  0.62013522  0.89989197     0.16400
C689        C  0.50621984  0.54787433  0.66546398    -0.13200
C690        C  0.50793815  0.59177181  0.61919540    -0.28400
H691        H  0.50972403  0.98039843  0.67102864     0.15800
H692        H  0.50439352  0.66323072  0.60982646     0.16400
C693        C  0.00277667  0.87980624  0.89443963    -0.13200
C694        C  0.98669927  0.93768866  0.86216426    -0.28400
H695        H  0.00576458  0.30330574  0.89743246     0.15800
H696        H  0.47838791  0.99719784  0.86744205     0.16400
C697        C  0.72621808  0.91128681  0.93583478    -0.13200
C698        C  0.66914850  0.88795341  0.48497298    -0.28400
H699        H  0.72920115  0.95269257  0.89871772     0.15800
H700        H  0.66661816  0.84489369  0.52155050     0.16400
C701        C  0.83618747  0.56410001  0.04441197    -0.13200
C702        C  0.82616165  0.63243080  0.51271122    -0.28400
H703        H  0.79609345  0.52080634  0.07936703     0.15800
H704        H  0.86630770  0.67574520  0.47779224     0.16400
loop_ 
_geom_bond_atom_site_label_1 
_geom_bond_atom_site_label_2 
_geom_bond_distance 
_geom_bond_site_symmetry_2 
_ccdc_geom_bond_type 
O1         Cu185   2.023       .  S
O1           C99   1.280       .  A
O2         Cu361   2.026       .  S
O2           C12   1.281       .  A
O3          Cu97   1.978   1_554  S
O3           C13   1.272       .  A
O4           Cu9   1.968   1_565  S
O4          C542   1.273       .  A
O5          Cu98   2.017       .  S
O5           C14   1.278       .  A
O6          Cu10   2.002       .  S
O6          C541   1.277       .  A
O7         Cu186   2.003       .  S
O7          C100   1.276   1_565  A
O8         Cu362   1.981   1_455  S
O8           C11   1.272   1_554  A
Cu9         O177   2.024   1_545  S
Cu9         O354   2.022   1_455  S
Cu9          O91   1.975       .  S
Cu9        Cu626   2.378   1_445  S
Cu10         O93   2.017   1_554  S
Cu10        O183   2.006       .  S
Cu10        O360   1.986       .  S
Cu10       Cu625   2.379   1_554  S
C11          O89   1.280       .  A
C11          C82   1.464       .  S
C12          O95   1.276   1_545  A
C12          C85   1.478       .  S
C13         O534   1.278   1_445  A
C13          C74   1.457       .  S
C14         O532   1.273       .  A
C14          C77   1.461       .  S
N15          C19   1.372       .  A
N15         C104   1.361       .  A
N15         N110   1.432       .  S
C16          C86   1.488       .  S
C16         N103   1.361   1_554  A
C16         C105   1.382       .  A
C17          C18   1.369       .  A
C17         C104   1.382       .  A
C17          H20   1.078       .  S
C18          C19   1.382       .  A
C18          H21   1.080       .  S
C19          C69   1.495       .  S
N22          C26   1.366       .  A
N22         C111   1.363       .  A
N22         N103   1.431       .  S
C23          C81   1.471       .  S
C23         N110   1.363       .  A
C23         C112   1.380       .  A
C24          C25   1.371       .  A
C24         C111   1.380       .  A
C24          H27   1.083       .  S
C25          C26   1.378       .  A
C25          H28   1.079       .  S
C26          C66   1.488   1_556  S
O29         Cu37   2.003       .  S
O29          C39   1.278       .  A
O30         Cu37   2.018       .  S
O30          C40   1.277       .  A
O31         Cu37   2.016       .  S
O31          C41   1.277       .  A
O32         Cu37   2.020       .  S
O32          C42   1.279       .  A
O33         Cu38   2.024       .  S
O33          C42   1.279       .  A
O34         Cu38   2.035       .  S
O34          C41   1.282       .  A
O35         Cu38   2.012       .  S
O35          C40   1.280       .  A
O36         Cu38   2.012       .  S
O36          C39   1.277       .  A
Cu37        Cu38   2.373       .  S
C39          C57   1.471       .  S
C40          C61   1.481       .  S
C41          C65   1.484       .  S
C42          C70   1.483       .  S
N43          C47   1.361       .  A
N43          C44   1.371       .  A
N43         N578   1.436   1_545  S
C44          C62   1.481   1_655  S
C44          C45   1.381       .  A
C45          C46   1.357       .  A
C45          H48   1.083   1_655  S
C46          C47   1.380       .  A
C46          H49   1.080   1_655  S
C47          C73   1.478   1_655  S
N50          C54   1.369       .  A
N50          C51   1.371       .  A
N50         N571   1.436       .  S
C51          C58   1.480       .  S
C51          C52   1.379       .  A
C52          C53   1.359       .  A
C52          H55   1.083       .  S
C53          C54   1.383       .  A
C53          H56   1.081       .  S
C54          C78   1.465       .  S
C57          C58   1.347       .  D
C57          H59   1.084       .  S
C58          H60   1.086       .  S
C61          C62   1.343       .  D
C61          H63   1.087       .  S
C62          H64   1.087       .  S
C65          C66   1.347       .  D
C65          H67   1.084       .  S
C66          H68   1.085       .  S
C69          C70   1.348       .  D
C69          H71   1.080       .  S
C70          H72   1.083       .  S
C73          C74   1.340       .  D
C73         H251   1.084   1_545  S
C74          H76   1.083       .  S
H75         C249   1.085   1_455  S
C77          C78   1.343       .  D
C77         H255   1.086       .  S
C78         H432   1.078       .  S
H79         C253   1.085       .  S
H80         C430   1.075       .  S
C81         C170   1.340       .  D
C81          H83   1.086       .  S
C82         C169   1.340       .  D
C82          H84   1.087   1_556  S
C85         C174   1.343       .  D
C85          H87   1.085       .  S
C86         C173   1.343       .  D
C86          H88   1.085   1_554  S
O89        Cu273   2.021       .  S
O90        Cu449   2.024       .  S
O90         C100   1.281   1_556  A
O91         C101   1.272       .  A
O92         Cu97   1.971   1_565  S
O92         C630   1.274       .  A
O93         C102   1.278       .  A
O94         Cu98   2.004       .  S
O94         C629   1.278       .  A
O95        Cu274   2.002       .  S
O96        Cu450   1.979   1_455  S
O96          C99   1.272       .  A
Cu97        O265   2.025   1_545  S
Cu97        O442   2.022   1_455  S
Cu97       Cu538   2.378   1_446  S
Cu98        O271   2.006       .  S
Cu98        O448   1.985       .  S
Cu98       Cu537   2.379       .  S
C99         C170   1.464       .  S
C100        C173   1.478       .  S
C101        O622   1.278   1_445  A
C101        C162   1.457       .  S
C102        O620   1.273       .  A
C102        C165   1.462       .  S
N103        C107   1.370       .  A
C104        C174   1.488       .  S
C105        C106   1.370       .  A
C105        H108   1.078       .  S
C106        C107   1.382   1_554  A
C106        H109   1.079       .  S
C107        C157   1.492       .  S
N110        C114   1.367       .  A
C111        C169   1.473       .  S
C112        C113   1.371       .  A
C112        H115   1.083       .  S
C113        C114   1.378       .  A
C113        H116   1.078       .  S
C114        C154   1.490       .  S
O117       Cu125   1.997       .  S
O117        C127   1.277       .  A
O118       Cu125   2.015       .  S
O118        C128   1.277       .  A
O119       Cu125   2.016       .  S
O119        C129   1.277       .  A
O120       Cu125   2.019       .  S
O120        C130   1.279       .  A
O121       Cu126   2.025       .  S
O121        C130   1.279       .  A
O122       Cu126   2.038       .  S
O122        C129   1.282       .  A
O123       Cu126   2.012       .  S
O123        C128   1.280       .  A
O124       Cu126   2.015       .  S
O124        C127   1.277       .  A
Cu125      Cu126   2.373       .  S
C127        C145   1.470       .  S
C128        C149   1.479       .  S
C129        C153   1.485       .  S
C130        C158   1.483       .  S
N131        C135   1.362       .  A
N131        C132   1.371       .  A
N131        N666   1.436   1_545  S
C132        C150   1.479   1_655  S
C132        C133   1.380   1_655  A
C133        C134   1.356   1_455  A
C133        H136   1.083       .  S
C134        C135   1.380       .  A
C134        H137   1.080   1_655  S
C135        C161   1.478   1_655  S
N138        C142   1.369       .  A
N138        C139   1.370       .  A
N138        N659   1.436       .  S
C139        C146   1.480       .  S
C139        C140   1.379       .  A
C140        C141   1.360       .  A
C140        H143   1.083       .  S
C141        C142   1.384       .  A
C141        H144   1.082       .  S
C142        C166   1.464       .  S
C145        C146   1.347       .  D
C145        H147   1.085       .  S
C146        H148   1.086       .  S
C149        C150   1.343       .  D
C149        H151   1.087       .  S
C150        H152   1.087       .  S
C153        C154   1.348       .  D
C153        H155   1.083       .  S
C154        H156   1.085       .  S
C157        C158   1.347       .  D
C157        H159   1.082       .  S
C158        H160   1.084       .  S
C161        C162   1.341       .  D
C161        H339   1.084   1_545  S
C162        H164   1.082       .  S
H163        C337   1.085   1_455  S
C165        C166   1.344       .  D
C165        H343   1.086       .  S
C166        H520   1.077       .  S
H167        C341   1.085       .  S
H168        C518   1.074       .  S
C169        H171   1.086       .  S
C170        H172   1.087       .  S
C173        H175   1.085       .  S
C174        H176   1.085       .  S
O177        C275   1.281       .  A
O178       Cu537   2.021       .  S
O178        C188   1.280       .  A
O179       Cu273   1.979   1_554  S
O179        C189   1.272       .  A
O180       Cu185   1.969       .  S
O180        C366   1.273       .  A
O181       Cu274   2.018       .  S
O181        C190   1.278       .  A
O182       Cu186   1.997       .  S
O182        C365   1.277   1_565  A
O183        C276   1.276       .  A
O184       Cu538   1.984   1_455  S
O184        C187   1.273   1_554  A
Cu185       O530   2.025   1_455  S
Cu185       O267   1.978       .  S
Cu185      Cu450   2.378   1_455  S
Cu186       O269   2.018   1_554  S
Cu186       O536   1.978       .  S
Cu186      Cu449   2.378   1_564  S
C187        O265   1.281       .  A
C187        C258   1.468       .  S
C188        O271   1.276       .  A
C188        C261   1.477       .  S
C189        O358   1.277   1_455  A
C189        C250   1.456   1_455  S
C190        O356   1.273       .  A
C190        C253   1.463       .  S
N191        C195   1.367       .  A
N191        C280   1.360       .  A
N191        N286   1.431       .  S
C192        C262   1.489       .  S
C192        N279   1.361   1_554  A
C192        C281   1.382       .  A
C193        C280   1.382       .  A
C193        C194   1.369       .  A
C193        H196   1.077       .  S
C194        C195   1.385       .  A
C194        H197   1.079       .  S
C195        C245   1.500       .  S
N198        C202   1.365       .  A
N198        C287   1.365       .  A
N198        N279   1.431       .  S
C199        C257   1.479       .  S
C199        N286   1.365       .  A
C199        C288   1.379       .  A
C200        C287   1.379       .  A
C200        C201   1.369       .  A
C200        H203   1.081   1_565  S
C201        C202   1.376       .  A
C201        H204   1.077       .  S
C202        C242   1.486   1_556  S
O205       Cu213   2.000       .  S
O205        C215   1.278       .  A
O206       Cu213   2.014       .  S
O206        C216   1.277       .  A
O207       Cu213   2.021       .  S
O207        C217   1.278       .  A
O208       Cu213   2.022       .  S
O208        C218   1.279       .  A
O209       Cu214   2.009       .  S
O209        C218   1.277       .  A
O210       Cu214   2.023       .  S
O210        C217   1.280       .  A
O211       Cu214   2.015       .  S
O211        C216   1.280       .  A
O212       Cu214   2.010       .  S
O212        C215   1.277       .  A
Cu213      Cu214   2.374       .  S
C215        C233   1.468       .  S
C216        C237   1.480       .  S
C217        C241   1.480       .  S
C218        C246   1.473       .  S
N219        C223   1.360       .  A
N219        C220   1.370       .  A
N219        N402   1.436       .  S
C220        C238   1.482   1_655  S
C220        C221   1.381       .  A
C221        C222   1.358       .  A
C221        H224   1.081       .  S
C222        C223   1.379       .  A
C222        H225   1.079       .  S
C223        C249   1.477       .  S
N226        C230   1.370       .  A
N226        C227   1.371       .  A
N226        N395   1.436   1_565  S
C227        C234   1.480       .  S
C227        C228   1.378       .  A
C228        C229   1.359       .  A
C228        H231   1.083       .  S
C229        C230   1.384       .  A
C229        H232   1.081       .  S
C230        C254   1.467       .  S
C233        C234   1.346       .  D
C233        H235   1.084       .  S
C234        H236   1.086       .  S
C237        C238   1.343       .  D
C237        H239   1.087       .  S
C238        H240   1.088       .  S
C241        C242   1.344       .  D
C241        H243   1.084       .  S
C242        H244   1.086       .  S
C245        C246   1.350       .  D
C245        H247   1.078       .  S
C246        H248   1.077       .  S
C249        C250   1.339       .  D
C250        H252   1.082       .  S
C253        C254   1.344       .  D
C254        H608   1.074       .  S
H256        C606   1.077   1_545  S
C257        C346   1.339       .  D
C257        H259   1.086       .  S
C258        C345   1.338       .  D
C258        H260   1.086   1_556  S
C261        C350   1.344       .  D
C261        H263   1.085       .  S
C262        C349   1.344       .  D
C262        H264   1.085   1_554  S
O266       Cu625   2.021       .  S
O266        C276   1.280   1_556  A
O267        C277   1.272       .  A
O268       Cu273   1.970       .  S
O268        C454   1.274       .  A
O269        C278   1.278       .  A
O270       Cu274   1.997       .  S
O270        C453   1.277   1_565  A
O272       Cu626   1.986   1_455  S
O272        C275   1.273       .  A
Cu273       O618   2.024   1_455  S
Cu273      Cu362   2.378   1_456  S
Cu274       O624   1.977       .  S
Cu274      Cu361   2.378   1_565  S
C275        C346   1.468       .  S
C276        C349   1.478       .  S
C277        O446   1.277   1_455  A
C277        C338   1.454   1_455  S
C278        O444   1.274       .  A
C278        C341   1.464       .  S
N279        C283   1.367       .  A
C280        C350   1.488       .  S
C281        C282   1.369       .  A
C281        H284   1.078       .  S
C282        C283   1.385   1_554  A
C282        H285   1.080       .  S
C283        C333   1.499       .  S
N286        C290   1.365       .  A
C287        C345   1.479       .  S
C288        C289   1.369       .  A
C288        H291   1.081   1_565  S
C289        C290   1.377       .  A
C289        H292   1.077       .  S
C290        C330   1.487       .  S
O293       Cu301   1.998       .  S
O293        C303   1.277       .  A
O294       Cu301   2.011       .  S
O294        C304   1.276       .  A
O295       Cu301   2.023       .  S
O295        C305   1.278       .  A
O296       Cu301   2.023       .  S
O296        C306   1.280       .  A
O297       Cu302   2.008       .  S
O297        C306   1.276       .  A
O298       Cu302   2.022       .  S
O298        C305   1.279       .  A
O299       Cu302   2.018       .  S
O299        C304   1.281       .  A
O300       Cu302   2.013       .  S
O300        C303   1.277       .  A
Cu301      Cu302   2.374       .  S
C303        C321   1.468       .  S
C304        C325   1.480       .  S
C305        C329   1.481       .  S
C306        C334   1.474       .  S
N307        C311   1.359       .  A
N307        C308   1.371       .  A
N307        N490   1.437       .  S
C308        C326   1.482   1_655  S
C308        C309   1.380       .  A
C309        C310   1.358       .  A
C309        H312   1.081       .  S
C310        C311   1.379       .  A
C310        H313   1.079       .  S
C311        C337   1.475       .  S
N314        C318   1.370       .  A
N314        C315   1.371       .  A
N314        N483   1.436   1_565  S
C315        C322   1.479       .  S
C315        C316   1.378       .  A
C316        C317   1.359       .  A
C316        H319   1.083       .  S
C317        C318   1.384       .  A
C317        H320   1.081       .  S
C318        C342   1.466       .  S
C321        C322   1.346       .  D
C321        H323   1.085       .  S
C322        H324   1.086       .  S
C325        C326   1.342       .  D
C325        H327   1.087       .  S
C326        H328   1.088       .  S
C329        C330   1.345       .  D
C329        H331   1.084       .  S
C330        H332   1.085       .  S
C333        C334   1.351       .  D
C333        H335   1.077       .  S
C334        H336   1.079       .  S
C337        C338   1.339       .  D
C338        H340   1.082       .  S
C341        C342   1.344       .  D
C342        H696   1.074       .  S
H344        C694   1.077   1_545  S
C345        H347   1.086       .  S
C346        H348   1.086       .  S
C349        H351   1.085       .  S
C350        H352   1.085       .  S
O353       Cu537   2.023       .  S
O353        C451   1.281       .  A
O354        C364   1.281       .  A
O355       Cu449   1.979   1_554  S
O355        C365   1.272       .  A
O356       Cu361   1.969   1_565  S
O357       Cu450   2.018       .  S
O357        C366   1.278   1_655  A
O358       Cu362   1.997       .  S
O359       Cu538   2.003       .  S
O359        C452   1.276   1_565  A
O360        C363   1.273   1_554  A
Cu361       O529   2.021   1_545  S
Cu361       O443   1.979       .  S
Cu362       O445   2.017   1_554  S
Cu362       O535   2.005       .  S
C363        O441   1.281       .  A
C363        C434   1.467       .  S
C364        O447   1.276   1_545  A
C364        C437   1.479       .  S
C365        C426   1.455       .  S
C366        C429   1.463       .  S
N367        C371   1.367       .  A
N367        C456   1.360       .  A
N367        N462   1.431       .  S
C368        C438   1.488       .  S
C368        N455   1.360   1_554  A
C368        C457   1.382       .  A
C369        C456   1.382       .  A
C369        C370   1.369       .  A
C369        H372   1.077       .  S
C370        C371   1.386       .  A
C370        H373   1.080       .  S
C371        C421   1.500       .  S
N374        C378   1.365       .  A
N374        C463   1.364       .  A
N374        N455   1.431       .  S
C375        C433   1.478       .  S
C375        N462   1.365       .  A
C375        C464   1.379       .  A
C376        C463   1.379       .  A
C376        C377   1.369       .  A
C376        H379   1.081       .  S
C377        C378   1.377       .  A
C377        H380   1.076       .  S
C378        C418   1.486   1_556  S
O381       Cu389   1.998       .  S
O381        C391   1.277       .  A
O382       Cu389   2.011       .  S
O382        C392   1.276       .  A
O383       Cu389   2.022       .  S
O383        C393   1.278       .  A
O384       Cu389   2.022       .  S
O384        C394   1.279       .  A
O385       Cu390   2.008       .  S
O385        C394   1.277       .  A
O386       Cu390   2.024       .  S
O386        C393   1.280       .  A
O387       Cu390   2.018       .  S
O387        C392   1.281       .  A
O388       Cu390   2.012       .  S
O388        C391   1.277       .  A
Cu389      Cu390   2.374       .  S
C391        C409   1.468       .  S
C392        C413   1.479       .  S
C393        C417   1.481       .  S
C394        C422   1.473       .  S
N395        C399   1.360       .  A
N395        C396   1.370       .  A
C396        C414   1.481       .  S
C396        C397   1.380       .  A
C397        C398   1.358       .  A
C397        H400   1.081       .  S
C398        C399   1.379       .  A
C398        H401   1.079       .  S
C399        C425   1.477       .  S
N402        C406   1.370       .  A
N402        C403   1.371       .  A
C403        C410   1.480       .  S
C403        C404   1.378       .  A
C404        C405   1.359       .  A
C404        H407   1.083       .  S
C405        C406   1.384       .  A
C405        H408   1.081       .  S
C406        C430   1.468       .  S
C409        C410   1.347       .  D
C409        H411   1.084       .  S
C410        H412   1.086       .  S
C413        C414   1.342       .  D
C413        H415   1.087       .  S
C414        H416   1.088       .  S
C417        C418   1.345       .  D
C417        H419   1.085       .  S
C418        H420   1.085       .  S
C421        C422   1.350       .  D
C421        H423   1.078       .  S
C422        H424   1.078       .  S
C425        C426   1.340       .  D
C425        H603   1.085   1_545  S
C426        H428   1.082       .  S
H427        C601   1.085       .  S
C429        C430   1.345   1_455  D
C429        H607   1.085       .  S
H431        C605   1.086       .  S
C433        C522   1.338       .  D
C433        H435   1.086       .  S
C434        C521   1.339       .  D
C434        H436   1.086   1_556  S
C437        C526   1.344       .  D
C437        H439   1.085       .  S
C438        C525   1.343       .  D
C438        H440   1.085   1_554  S
O441       Cu625   2.022       .  S
O442        C452   1.281   1_556  A
O443        C453   1.272       .  A
O444       Cu449   1.971   1_565  S
O445        C454   1.278   1_655  A
O446       Cu450   1.996       .  S
O447       Cu626   2.007       .  S
O448        C451   1.273       .  A
Cu449       O617   2.022   1_545  S
Cu450       O623   2.003       .  S
C451        C522   1.467       .  S
C452        C525   1.477       .  S
C453        C514   1.455       .  S
C454        C517   1.463       .  S
N455        C459   1.368       .  A
C456        C526   1.489       .  S
C457        C458   1.369       .  A
C457        H460   1.077       .  S
C458        C459   1.385   1_554  A
C458        H461   1.080       .  S
C459        C509   1.500       .  S
N462        C466   1.365       .  A
C463        C521   1.477       .  S
C464        C465   1.369       .  A
C464        H467   1.082       .  S
C465        C466   1.377       .  A
C465        H468   1.077       .  S
C466        C506   1.486       .  S
O469       Cu477   1.998       .  S
O469        C479   1.277       .  A
O470       Cu477   2.012       .  S
O470        C480   1.276       .  A
O471       Cu477   2.024       .  S
O471        C481   1.279       .  A
O472       Cu477   2.026       .  S
O472        C482   1.280       .  A
O473       Cu478   2.007       .  S
O473        C482   1.276       .  A
O474       Cu478   2.022       .  S
O474        C481   1.279       .  A
O475       Cu478   2.015       .  S
O475        C480   1.281       .  A
O476       Cu478   2.011       .  S
O476        C479   1.277       .  A
Cu477      Cu478   2.373       .  S
C479        C497   1.469       .  S
C480        C501   1.478       .  S
C481        C505   1.481       .  S
C482        C510   1.475       .  S
N483        C487   1.360       .  A
N483        C484   1.370       .  A
C484        C502   1.480       .  S
C484        C485   1.380       .  A
C485        C486   1.357       .  A
C485        H488   1.081       .  S
C486        C487   1.379       .  A
C486        H489   1.079       .  S
C487        C513   1.476       .  S
N490        C494   1.370       .  A
N490        C491   1.372       .  A
C491        C498   1.480       .  S
C491        C492   1.378       .  A
C492        C493   1.359       .  A
C492        H495   1.083       .  S
C493        C494   1.384       .  A
C493        H496   1.081       .  S
C494        C518   1.466       .  S
C497        C498   1.347       .  D
C497        H499   1.085       .  S
C498        H500   1.086       .  S
C501        C502   1.342       .  D
C501        H503   1.087       .  S
C502        H504   1.088       .  S
C505        C506   1.344       .  D
C505        H507   1.085       .  S
C506        H508   1.085       .  S
C509        C510   1.352       .  D
C509        H511   1.078       .  S
C510        H512   1.078       .  S
C513        C514   1.340       .  D
C513        H691   1.085   1_545  S
C514        H516   1.082       .  S
H515        C689   1.084       .  S
C517        C518   1.343   1_455  D
C517        H695   1.085       .  S
H519        C693   1.086       .  S
C521        H523   1.086       .  S
C522        H524   1.086       .  S
C525        H527   1.085       .  S
C526        H528   1.085       .  S
O529        C627   1.280       .  A
O530        C540   1.281       .  A
O531       Cu625   1.974   1_554  S
O531        C541   1.272       .  A
O532       Cu537   1.968       .  S
O533       Cu626   2.020       .  S
O533        C542   1.279   1_655  A
O534       Cu538   2.005       .  S
O535        C628   1.276       .  A
O536        C539   1.272   1_554  A
Cu537       O619   1.976       .  S
Cu538       O621   2.021   1_554  S
C539        O617   1.280       .  A
C539        C610   1.463       .  S
C540        O623   1.276       .  A
C540        C613   1.478       .  S
C541        C602   1.455       .  S
C542        C605   1.462       .  S
N543        C547   1.372       .  A
N543        C632   1.361       .  A
N543        N638   1.432       .  S
C544        C614   1.489       .  S
C544        N631   1.362   1_554  A
C544        C633   1.383       .  A
C545        C632   1.382       .  A
C545        C546   1.369       .  A
C545        H548   1.079       .  S
C546        C547   1.382       .  A
C546        H549   1.079       .  S
C547        C597   1.495       .  S
N550        C554   1.366       .  A
N550        C639   1.364       .  A
N550        N631   1.432       .  S
C551        C609   1.471       .  S
C551        N638   1.364       .  A
C551        C640   1.380       .  A
C552        C639   1.380       .  A
C552        C553   1.371       .  A
C552        H555   1.083   1_565  S
C553        C554   1.378       .  A
C553        H556   1.079       .  S
C554        C594   1.487   1_556  S
O557       Cu565   2.000       .  S
O557        C567   1.278       .  A
O558       Cu565   2.015       .  S
O558        C568   1.277       .  A
O559       Cu565   2.014       .  S
O559        C569   1.277       .  A
O560       Cu565   2.019       .  S
O560        C570   1.279       .  A
O561       Cu566   2.026       .  S
O561        C570   1.280       .  A
O562       Cu566   2.037       .  S
O562        C569   1.282       .  A
O563       Cu566   2.012       .  S
O563        C568   1.280       .  A
O564       Cu566   2.013       .  S
O564        C567   1.277       .  A
Cu565      Cu566   2.373       .  S
C567        C585   1.470       .  S
C568        C589   1.479       .  S
C569        C593   1.483       .  S
C570        C598   1.483       .  S
N571        C575   1.361       .  A
N571        C572   1.371       .  A
C572        C590   1.478       .  S
C572        C573   1.380       .  A
C573        C574   1.357       .  A
C573        H576   1.083       .  S
C574        C575   1.380       .  A
C574        H577   1.080       .  S
C575        C601   1.476       .  S
N578        C582   1.370       .  A
N578        C579   1.371       .  A
C579        C586   1.480       .  S
C579        C580   1.379       .  A
C580        C581   1.359       .  A
C580        H583   1.083       .  S
C581        C582   1.383       .  A
C581        H584   1.081       .  S
C582        C606   1.465       .  S
C585        C586   1.347       .  D
C585        H587   1.085       .  S
C586        H588   1.086       .  S
C589        C590   1.343       .  D
C589        H591   1.087       .  S
C590        H592   1.087       .  S
C593        C594   1.348       .  D
C593        H595   1.083       .  S
C594        H596   1.085       .  S
C597        C598   1.348       .  D
C597        H599   1.080       .  S
C598        H600   1.083       .  S
C601        C602   1.339       .  D
C602        H604   1.083       .  S
C605        C606   1.344   1_455  D
C609        C698   1.340       .  D
C609        H611   1.086       .  S
C610        C697   1.340       .  D
C610        H612   1.087   1_556  S
C613        C702   1.344       .  D
C613        H615   1.085       .  S
C614        C701   1.345       .  D
C614        H616   1.085   1_554  S
O618        C628   1.280   1_556  A
O619        C629   1.272       .  A
O620       Cu625   1.967       .  S
O621        C630   1.279   1_655  A
O622       Cu626   2.005       .  S
O624        C627   1.271       .  A
C627        C698   1.464       .  S
C628        C701   1.478       .  S
C629        C690   1.456       .  S
C630        C693   1.464       .  S
N631        C635   1.371       .  A
C632        C702   1.488       .  S
C633        C634   1.369       .  A
C633        H636   1.079       .  S
C634        C635   1.381   1_554  A
C634        H637   1.080       .  S
C635        C685   1.492       .  S
N638        C642   1.367       .  A
C639        C697   1.471       .  S
C640        C641   1.370       .  A
C640        H643   1.083   1_565  S
C641        C642   1.378       .  A
C641        H644   1.078       .  S
C642        C682   1.488       .  S
O645       Cu653   1.999       .  S
O645        C655   1.278       .  A
O646       Cu653   2.015       .  S
O646        C656   1.277       .  A
O647       Cu653   2.015       .  S
O647        C657   1.277       .  A
O648       Cu653   2.019       .  S
O648        C658   1.279       .  A
O649       Cu654   2.022       .  S
O649        C658   1.279       .  A
O650       Cu654   2.035       .  S
O650        C657   1.282       .  A
O651       Cu654   2.014       .  S
O651        C656   1.280       .  A
O652       Cu654   2.015       .  S
O652        C655   1.277       .  A
Cu653      Cu654   2.373       .  S
C655        C673   1.471       .  S
C656        C677   1.480       .  S
C657        C681   1.484       .  S
C658        C686   1.482       .  S
N659        C663   1.362       .  A
N659        C660   1.371       .  A
C660        C678   1.480       .  S
C660        C661   1.380       .  A
C661        C662   1.357       .  A
C661        H664   1.082       .  S
C662        C663   1.380       .  A
C662        H665   1.080       .  S
C663        C689   1.479       .  S
N666        C670   1.371       .  A
N666        C667   1.371       .  A
C667        C674   1.480       .  S
C667        C668   1.378       .  A
C668        C669   1.360       .  A
C668        H671   1.083       .  S
C669        C670   1.383       .  A
C669        H672   1.081       .  S
C670        C694   1.467       .  S
C673        C674   1.347       .  D
C673        H675   1.085       .  S
C674        H676   1.086       .  S
C677        C678   1.343       .  D
C677        H679   1.087       .  S
C678        H680   1.087       .  S
C681        C682   1.348       .  D
C681        H683   1.083       .  S
C682        H684   1.085       .  S
C685        C686   1.347       .  D
C685        H687   1.081       .  S
C686        H688   1.084       .  S
C689        C690   1.340       .  D
C690        H692   1.082       .  S
C693        C694   1.345   1_455  D
C697        H699   1.086       .  S
C698        H700   1.087       .  S
C701        H703   1.085       .  S
C702        H704   1.085       .  S
