geometry optimzed in LAMMPS
_audit_creation_date              2020-11-30 
_audit_creation_method            'lammps2cif' 
_symmetry_space_group_name_H-M    'P1' 
_symmetry_Int_Tables_number       1 
_symmetry_cell_setting            triclinic 
loop_ 
_symmetry_equiv_pos_as_xyz 
  x,y,z 
_cell_length_a                    33.05947073 
_cell_length_b                    32.27561378551183 
_cell_length_c                    32.99740591730574 
_cell_angle_alpha                 91.56253120487615 
_cell_angle_beta                  91.03756328909682 
_cell_angle_gamma                 89.89945533883112 
loop_ 
_atom_site_label 
_atom_site_type_symbol 
_atom_site_fract_x 
_atom_site_fract_y 
_atom_site_fract_z 
_atom_site_charge 
N1          N  0.57298006  0.68948136  0.02405017    -0.24700
N2          N  0.55251982  0.71343200  0.99899702    -0.32500
C3          C  0.57898701  0.73584288  0.97807189     0.03700
C4          C  0.61781174  0.72661983  0.99146398     0.09700
C5          C  0.61273674  0.69694413  0.02042047    -0.04000
H6          H  0.57074085  0.75510772  0.95289280     0.10400
H7          H  0.63639492  0.67845682  0.03408175     0.11600
Cu8        Cu  0.48972693  0.71155729  0.99136838     0.44200
Cu9        Cu  0.54803045  0.63936356  0.05317496     0.42000
Cu10       Cu  0.44081717  0.63045919  0.04668859     0.43900
N11         N  0.42707724  0.70542316  0.99515114    -0.32000
N12         N  0.40978196  0.67747652  0.01774473    -0.26300
C13         C  0.36939568  0.68130140  0.01437194    -0.02400
C14         C  0.36063991  0.71286425  0.98814005     0.09800
C15         C  0.39789086  0.72712204  0.97600689     0.03600
H16         H  0.34796667  0.66047518  0.02752732     0.11300
H17         H  0.40336698  0.75066738  0.95404665     0.10300
N18         N  0.47772404  0.58219699  0.06517090    -0.33500
N19         N  0.51752380  0.58545037  0.06760767    -0.25700
C20         C  0.53333089  0.54805032  0.07575753    -0.00900
C21         C  0.50202449  0.51984476  0.07855633     0.07700
C22         C  0.46709474  0.54270433  0.07175815     0.05800
H23         H  0.56539261  0.54137205  0.07747003     0.10900
H24         H  0.43638897  0.53125475  0.06961140     0.09700
N25         N  0.57928660  0.23587397  0.06636759    -0.24700
N26         N  0.56717870  0.19980536  0.05043691    -0.32500
C27         C  0.59999094  0.17454438  0.04739968     0.03700
C28         C  0.63364481  0.19605317  0.06292485     0.09700
C29         C  0.61900447  0.23437298  0.07469335    -0.03400
H30         H  0.59927264  0.14292339  0.03568788     0.10400
H31         H  0.63636972  0.26000864  0.08768813     0.11600
Cu32       Cu  0.50519185  0.18865896  0.03713073     0.44200
Cu33       Cu  0.54420065  0.28827637  0.07530764     0.42000
Cu34       Cu  0.44012471  0.27696894  0.07266875     0.43900
N35         N  0.44108038  0.18896646  0.03596724    -0.32000
N36         N  0.41892541  0.21928418  0.05202901    -0.26300
C37         C  0.37953178  0.21045360  0.04598267    -0.02400
C38         C  0.37599586  0.17305865  0.02491232     0.09800
C39         C  0.41570854  0.16069582  0.01828737     0.03600
H40         H  0.35517949  0.23187822  0.05268348     0.11300
H41         H  0.42540796  0.13432457  0.99997529     0.10300
N42         N  0.46682039  0.33501197  0.08120362    -0.33500
N43         N  0.50650112  0.33906148  0.08170174    -0.25700
C44         C  0.51608732  0.37956201  0.08395748    -0.00900
C45         C  0.48048048  0.40238439  0.08482583     0.07700
C46         C  0.44985589  0.37300018  0.08311043     0.05800
H47         H  0.54668709  0.39128070  0.08344349     0.10900
H48         H  0.41764219  0.37889384  0.08165532     0.09700
N49         N  0.73351484  0.90292452  0.56294098    -0.24700
N50         N  0.76009088  0.92196791  0.54028801    -0.32500
C51         C  0.78583339  0.94344205  0.56525109     0.03700
C52         C  0.77568159  0.93624733  0.60509138     0.09700
C53         C  0.74244007  0.91063003  0.60220907    -0.03400
H54         H  0.80874999  0.96450932  0.55516976     0.10400
H55         H  0.72319855  0.90217100  0.62684849     0.11600
Cu56       Cu  0.75864223  0.92011578  0.47629223     0.44200
Cu57       Cu  0.67859104  0.87764145  0.54393713     0.42000
Cu58       Cu  0.66297411  0.87396294  0.44227076     0.43900
N59         N  0.74470430  0.90503820  0.41507499    -0.32000
N60         N  0.71018994  0.88646339  0.40499496    -0.26300
C61         C  0.70843655  0.87903504  0.36504260    -0.02400
C62         C  0.74305081  0.89371404  0.34816218     0.09800
C63         C  0.76577377  0.91039112  0.38065971     0.03600
H64         H  0.68271961  0.86520933  0.34908204     0.11300
H65         H  0.79485040  0.92556542  0.37935837     0.10300
N66         N  0.61528107  0.86650882  0.48036143    -0.33500
N67         N  0.62099633  0.86761586  0.51994710    -0.25700
C68         C  0.58483946  0.86557025  0.53792832    -0.00900
C69         C  0.55495658  0.86299177  0.50791123     0.07700
C70         C  0.57551867  0.86362774  0.47166488     0.05800
H71         H  0.58048336  0.86738981  0.57034454     0.10900
H72         H  0.56276200  0.86353571  0.44126320     0.09700
N73         N  0.28267180  0.90574520  0.58529082    -0.24700
N74         N  0.24966027  0.92178961  0.56872971    -0.32500
C75         C  0.22767475  0.94018467  0.59831815     0.03700
C76         C  0.24778411  0.93495261  0.63507847     0.09700
C77         C  0.28260609  0.91348982  0.62544808    -0.03400
H78         H  0.20086196  0.95868535  0.59308780     0.10400
H79         H  0.30766016  0.90681935  0.64580963     0.11600
Cu80       Cu  0.23956298  0.92175717  0.50594763     0.44200
Cu81       Cu  0.33067324  0.88120631  0.55294604     0.42000
Cu82       Cu  0.31828505  0.87284876  0.44488907     0.43900
N83         N  0.23652373  0.91484036  0.44271581    -0.32000
N84         N  0.26368536  0.89428427  0.42109370    -0.26300
C85         C  0.25402237  0.89718657  0.38147923    -0.02400
C86         C  0.21937496  0.92101570  0.37770939     0.09800
C87         C  0.20956981  0.93224326  0.41715588     0.03600
H88         H  0.27339437  0.88690331  0.35709056     0.11300
H89         H  0.18620015  0.95380052  0.42645733     0.10300
N90         N  0.37372692  0.86557804  0.47466650    -0.33500
N91         N  0.37824951  0.86846632  0.51451152    -0.25700
C92         C  0.41790168  0.86632298  0.52429693    -0.00900
C93         C  0.43942603  0.86200323  0.48875388     0.07700
C94         C  0.41041179  0.86160451  0.45798948     0.05800
H95         H  0.43001820  0.86944544  0.55488225     0.10900
H96         H  0.41571620  0.86017222  0.42572051     0.09700
O97         O  0.81357977  0.00675089  0.98390188    -0.70300
O98         O  0.79123645  0.88379343  0.97524267    -0.71300
O99         O  0.80110496  0.94873288  0.91709990    -0.59900
O100        O  0.80446014  0.94192625  0.04102421    -0.68300
O101        O  0.73825362  0.95362031  0.04030230    -0.67900
O102        O  0.73565638  0.96348255  0.92028616    -0.59100
O103        O  0.72532412  0.89700540  0.97399582    -0.71600
O104        O  0.74755950  0.01864299  0.98741337    -0.70400
Cu105      Cu  0.80505056  0.94470698  0.97910371     1.04600
Cu106      Cu  0.73454711  0.95840685  0.98040676     1.04300
C107        C  0.78392347  0.03188800  0.98834408     0.95900
C108        C  0.75455859  0.87112996  0.97372273     0.95000
C109        C  0.76759774  0.95837005  0.89956891     0.87200
C110        C  0.77130271  0.94758093  0.05985224     0.93400
N111        N  0.79718649  0.92013142  0.20938965    -0.00800
C112        C  0.76892276  0.91907647  0.23886794     0.01700
C113        C  0.73058315  0.92455381  0.22254930    -0.21100
C114        C  0.73488732  0.92852246  0.18189948    -0.21300
C115        C  0.77595140  0.92624001  0.17396283     0.01600
H116        H  0.70224387  0.92556502  0.23846705     0.15400
H117        H  0.71010094  0.93175516  0.16034893     0.15500
N118        N  0.77309509  0.14375861  0.02717031    -0.00800
C119        C  0.74370490  0.17093627  0.03912844     0.01700
C120        C  0.76045711  0.20944057  0.04807881    -0.21100
C121        C  0.80114542  0.20594582  0.04222938    -0.21300
C122        C  0.80864713  0.16541902  0.02953993     0.01600
H123        H  0.74479088  0.23743521  0.05756390     0.15400
H124        H  0.82309896  0.23035800  0.04788382     0.15500
O125        O  0.06295834  0.94486303  0.75293708    -0.70300
O126        O  0.94007328  0.95472978  0.74628205    -0.71300
O127        O  0.00681641  0.01121519  0.74924446    -0.59900
O128        O  0.99692722  0.88913870  0.74655145    -0.68300
O129        O  0.99098598  0.88662771  0.81328350    -0.67900
O130        O  0.00531302  0.01421032  0.81642380    -0.59100
O131        O  0.93884278  0.95789454  0.81354718    -0.71600
O132        O  0.05828022  0.94259999  0.81983214    -0.70400
Cu133      Cu  0.00171296  0.94997871  0.74651955     1.04600
Cu134      Cu  0.99830405  0.95035694  0.81822947     1.04300
C135        C  0.07967955  0.94167164  0.78809034     0.95900
C136        C  0.92041836  0.95814373  0.77938542     0.95000
C137        C  0.00814120  0.03235195  0.78235983     0.87200
C138        C  0.99206711  0.86830177  0.77824658     0.93400
N139        N  0.00891152  0.18465826  0.82390803    -0.00800
C140        C  0.02226966  0.21932006  0.80592765     0.01700
C141        C  0.03144416  0.20990007  0.76609052    -0.21100
C142        C  0.02295435  0.16830702  0.75952445    -0.21300
C143        C  0.00986285  0.15288090  0.79600423     0.01600
H144        H  0.04696734  0.22949096  0.74533336     0.15400
H145        H  0.02810764  0.15115970  0.73149185     0.15500
N146        N  0.19337511  0.95554624  0.77456438    -0.00800
C147        C  0.22112045  0.96015411  0.74497800     0.01700
C148        C  0.25837862  0.97084398  0.76201916    -0.21100
C149        C  0.25376971  0.97238590  0.80308296    -0.21300
C150        C  0.21396742  0.96226576  0.81055209     0.01600
H151        H  0.28674140  0.97484700  0.74680609     0.15400
H152        H  0.27749328  0.97907058  0.82533243     0.15500
O153        O  0.18846873  0.94179147  0.06652013    -0.70300
O154        O  0.18845635  0.94811461  0.94262302    -0.71300
O155        O  0.17310078  0.88415928  0.99902665    -0.59900
O156        O  0.20377756  0.00481695  0.00974947    -0.68300
O157        O  0.26868511  0.98777408  0.00587629    -0.67900
O158        O  0.23806212  0.86717017  0.00373079    -0.59100
O159        O  0.25232675  0.92694093  0.94448606    -0.71600
O160        O  0.25425855  0.92820743  0.06532054    -0.70400
Cu161      Cu  0.18599603  0.94526580  0.00459920     1.04600
Cu162      Cu  0.25542522  0.92687965  0.00493560     1.04300
C163        C  0.22212032  0.93522845  0.08519667     0.95900
C164        C  0.22100813  0.93799126  0.92430645     0.95000
C165        C  0.20094039  0.85663355  0.99955650     0.87200
C166        C  0.24104868  0.01530875  0.00870552     0.93400
O167        O  0.98219862  0.97880081  0.26513498    -0.70300
O168        O  0.98340262  0.85614142  0.25072145    -0.71300
O169        O  0.04267232  0.91708611  0.27247446    -0.59900
O170        O  0.92342256  0.91836093  0.24185999    -0.68300
O171        O  0.93934877  0.92592569  0.17744945    -0.67900
O172        O  0.05727242  0.92280490  0.20750289    -0.59100
O173        O  0.99950704  0.86155426  0.18601677    -0.71600
O174        O  0.99838595  0.98681166  0.20081967    -0.70400
Cu175      Cu  0.98228383  0.91728056  0.25972591     1.04600
Cu176      Cu  0.99900301  0.92439116  0.19059873     1.04300
C177        C  0.99049221  0.00225333  0.23596713     0.95900
C178        C  0.99269520  0.83938109  0.21675784     0.95000
C179        C  0.06874742  0.92002319  0.24447911     0.87200
C180        C  0.91272433  0.92308467  0.20476350     0.93400
O181        O  0.00586512  0.12813717  0.95715520    -0.70300
O182        O  0.00175637  0.14140922  0.07799786    -0.71300
O183        O  0.94121084  0.13547955  0.01510029    -0.59900
O184        O  0.06590329  0.13649195  0.01973149    -0.68300
O185        O  0.06315868  0.20492071  0.01526704    -0.67900
O186        O  0.94363799  0.20375925  0.00936645    -0.59100
O187        O  0.00184276  0.20988757  0.07326532    -0.71600
O188        O  0.00521514  0.19656513  0.95180176    -0.70400
Cu189      Cu  0.00362863  0.13280341  0.01773447     1.04600
Cu190      Cu  0.00337355  0.20597656  0.01227961     1.04300
C191        C  0.00666914  0.16018241  0.93544517     0.95900
C192        C  0.00133808  0.17753834  0.09474245     0.95000
C193        C  0.92322581  0.17050493  0.01140724     0.87200
C194        C  0.08371534  0.17170040  0.01775518     0.93400
N195        N  0.99806817  0.15337121  0.20686439    -0.00800
C196        C  0.99992908  0.18785934  0.23138727     0.01700
C197        C  0.00833973  0.17705440  0.27083248    -0.21100
C198        C  0.01128719  0.13462019  0.27081657    -0.21300
C199        C  0.00421314  0.12063184  0.23122877     0.01600
H200        H  0.00902016  0.19758144  0.29733392     0.15400
H201        H  0.01675150  0.11615095  0.29723992     0.15500
N202        N  0.18161338  0.93356111  0.23129501    -0.00800
C203        C  0.20297676  0.94173306  0.26630040     0.01700
C204        C  0.23874829  0.96160052  0.25780695    -0.21100
C205        C  0.24003702  0.96484894  0.21648440    -0.21300
C206        C  0.20492192  0.94693078  0.20068845     0.01600
H207        H  0.26282667  0.97003049  0.27910977     0.15400
H208        H  0.26453455  0.97807727  0.19982028     0.15500
N209        N  0.23075271  0.13181787  0.01247707    -0.00800
C210        C  0.26475232  0.15380183  0.00458808     0.01700
C211        C  0.25392051  0.19216667  0.99000255    -0.21100
C212        C  0.21237768  0.19410434  0.98978233    -0.21300
C213        C  0.19875972  0.15682530  0.00424772     0.01600
H214        H  0.27402400  0.21732631  0.98303572     0.15400
H215        H  0.19428424  0.22028987  0.98055102     0.15500
O216        O  0.99381493  0.67533007  0.05756751    -0.70300
O217        O  0.97733068  0.65940208  0.93675797    -0.71300
O218        O  0.04580530  0.66491243  0.99028756    -0.59900
O219        O  0.92603811  0.67004178  0.00342186    -0.68300
O220        O  0.92661075  0.73768809  0.99287356    -0.67900
O221        O  0.04889372  0.73333415  0.98585415    -0.59100
O222        O  0.98273399  0.72734234  0.92961452    -0.71600
O223        O  0.99329567  0.74346152  0.04988102    -0.70400
Cu224      Cu  0.98572209  0.66509875  0.99738499     1.04600
Cu225      Cu  0.98789157  0.73791347  0.98947230     1.04300
C226        C  0.99636755  0.71215687  0.07260674     0.95900
C227        C  0.97753642  0.69093686  0.91420043     0.95000
C228        C  0.06636149  0.69794894  0.98611114     0.87200
C229        C  0.90720473  0.70410347  0.99848191     0.93400
N230        N  0.02344997  0.69670740  0.18450796    -0.00800
C231        C  0.03135119  0.66643535  0.21147506     0.01700
C232        C  0.05254871  0.68259635  0.24487365    -0.21100
C233        C  0.05644653  0.72422165  0.23929988    -0.21300
C234        C  0.03787774  0.73238517  0.20260124     0.01600
H235        H  0.06166825  0.66634848  0.27181855     0.15400
H236        H  0.06846947  0.74672788  0.26124679     0.15500
N237        N  0.21282671  0.74051859  0.98701617    -0.00800
C238        C  0.24642168  0.71894576  0.97627039     0.01700
C239        C  0.23605487  0.68402783  0.95346013    -0.21100
C240        C  0.19457462  0.68335603  0.95090599    -0.21300
C241        C  0.18062017  0.71795682  0.97245106     0.01600
H242        H  0.25632845  0.66027103  0.94199728     0.15400
H243        H  0.17677912  0.65921747  0.93586392     0.15500
N244        N  0.96873365  0.71599382  0.80265104    -0.00800
C245        C  0.95731069  0.68457307  0.77621926     0.01700
C246        C  0.94685031  0.70100211  0.73904682    -0.21100
C247        C  0.95169896  0.74300603  0.74259110    -0.21300
C248        C  0.96560051  0.75167527  0.78169471     0.01600
H249        H  0.93794384  0.68429433  0.71145634     0.15400
H250        H  0.94569302  0.76475688  0.71883803     0.15500
N251        N  0.80835875  0.95367635  0.75140860    -0.00800
C252        C  0.78664104  0.95884843  0.71665077     0.01700
C253        C  0.74824328  0.97281004  0.72533808    -0.21100
C254        C  0.74582178  0.97530565  0.76684643    -0.21300
C255        C  0.78309702  0.96292428  0.78271465     0.01600
H256        H  0.72354368  0.97740845  0.70393968     0.15400
H257        H  0.71855445  0.98306324  0.78293030     0.15500
N258        N  0.76498180  0.75381187  0.97900987    -0.00800
C259        C  0.72954080  0.73293041  0.97301617     0.01700
C260        C  0.73733160  0.69158770  0.96399230    -0.21100
C261        C  0.77853507  0.68660122  0.96577135    -0.21300
C262        C  0.79484836  0.72509294  0.97577320     0.01600
H263        H  0.71535486  0.66691080  0.96008630     0.15400
H264        H  0.79462992  0.65765446  0.96136888     0.15500
N265        N  0.93546495  0.50759110  0.71934849    -0.24700
N266        N  0.95732566  0.50156134  0.75253069    -0.32500
C267        C  0.96109167  0.53814746  0.77344551     0.03700
C268        C  0.94001577  0.56821271  0.75214557     0.09700
C269        C  0.92421723  0.54745714  0.71829232    -0.03400
H270        H  0.97793763  0.54251993  0.80163695     0.10400
H271        H  0.90709034  0.56087141  0.69364193     0.11600
Cu272      Cu  0.97931606  0.44200647  0.76383961     0.44200
Cu273      Cu  0.92667941  0.46262927  0.67420441     0.42000
Cu274      Cu  0.96612273  0.35850887  0.68314272     0.43900
N275        N  0.99356702  0.37903379  0.76948451    -0.32000
N276        N  0.98817853  0.34884028  0.74188885    -0.26300
C277        C  0.00142197  0.31276878  0.75743379    -0.02400
C278        C  0.01619854  0.32083599  0.79650843     0.09800
C279        C  0.01056731  0.36299582  0.80275295     0.03600
H280        H  0.00145940  0.28361008  0.74072690     0.11300
H281        H  0.01924302  0.38109399  0.82958974     0.10300
N282        N  0.94537717  0.38251708  0.62841975    -0.33500
N283        N  0.93060507  0.42047754  0.62610400    -0.25700
C284        C  0.92257875  0.42879131  0.58717951    -0.00900
C285        C  0.93285450  0.39451132  0.56337683     0.07700
C286        C  0.94696063  0.36557284  0.59061173     0.05800
H287        H  0.91128873  0.45832510  0.57717009     0.10900
H288        H  0.95910230  0.33518474  0.58331605     0.09700
N289        N  0.96379449  0.51585991  0.28989934    -0.24700
N290        N  0.97686815  0.49966091  0.25528744    -0.32500
C291        C  0.98910775  0.53086170  0.23178323     0.03700
C292        C  0.98335790  0.56812566  0.25307034     0.09700
C293        C  0.96726291  0.55716463  0.28949145    -0.03400
H294        H  0.00316440  0.52657884  0.20261226     0.10400
H295        H  0.96073941  0.57770257  0.31502350     0.11600
Cu296      Cu  0.98006628  0.43526576  0.24550388     0.44200
Cu297      Cu  0.94669189  0.48273688  0.33950154     0.42000
Cu298      Cu  0.93718647  0.37532398  0.33017433     0.43900
N299        N  0.97656571  0.37041275  0.24741509    -0.32000
N300        N  0.95766131  0.35021128  0.27592062    -0.26300
C301        C  0.96145693  0.30931690  0.26877776    -0.02400
C302        C  0.98448987  0.30299740  0.23474406     0.09800
C303        C  0.99404528  0.34234687  0.22214490     0.03600
H304        H  0.95183240  0.28589790  0.28937729     0.11300
H305        H  0.01369354  0.35000907  0.19758841     0.10300
N306        N  0.93200794  0.40590441  0.38578310    -0.33500
N307        N  0.93531955  0.44659721  0.38875133    -0.25700
C308        C  0.93335033  0.45868100  0.42789424    -0.00900
C309        C  0.92904391  0.42389012  0.45089453     0.07700
C310        C  0.92825203  0.39073042  0.42322209     0.05800
H311        H  0.93625672  0.49041719  0.43896712     0.10900
H312        H  0.92592823  0.35816193  0.42971797     0.09700
C313        C  0.93236259  0.39085596  0.51843353    -0.13800
C314        C  0.92738570  0.42445918  0.49557426    -0.29000
H315        H  0.93793809  0.36072429  0.50418080     0.15200
H316        H  0.92384700  0.45475001  0.51010750     0.15800
C317        C  0.93515730  0.61347251  0.75927186    -0.13800
C318        C  0.95942109  0.63873103  0.78221552    -0.29000
H319        H  0.91166150  0.62740345  0.74066206     0.15200
H320        H  0.98285049  0.62592814  0.80166025     0.15800
C321        C  0.99742860  0.61053165  0.24530606    -0.13800
C322        C  0.01341611  0.62410378  0.21082434    -0.29000
H323        H  0.99533993  0.63216189  0.27103970     0.15200
H324        H  0.01377928  0.60464095  0.18349695     0.15800
C325        C  0.11032191  0.69367180  0.97999914    -0.13800
C326        C  0.13705148  0.72525283  0.98188768    -0.29000
H327        H  0.12090444  0.66235241  0.97377914     0.15200
H328        H  0.12669877  0.75567619  0.99168416     0.15800
C329        C  0.00548497  0.71979431  0.11601821    -0.13800
C330        C  0.00622432  0.69010620  0.14402341    -0.29000
H331        H  0.01473537  0.75099810  0.12346380     0.15200
H332        H  0.99700381  0.65895751  0.13471043     0.15800
C333        C  0.83876754  0.73282632  0.98297872    -0.13800
C334        C  0.86265898  0.70268209  0.99752729    -0.29000
H335        H  0.85161455  0.76242215  0.97515817     0.15200
H336        H  0.84911901  0.67361309  0.00605457     0.15800
C337        C  0.97023393  0.68552053  0.87011455    -0.13800
C338        C  0.98173815  0.71481121  0.84459083    -0.29000
H339        H  0.95299740  0.65878632  0.85940423     0.15200
H340        H  0.99856084  0.74125088  0.85704472     0.15800
C341        C  0.98128400  0.22821767  0.22270175    -0.13800
C342        C  0.00327438  0.26311258  0.22304322    -0.29000
H343        H  0.94855775  0.23016891  0.22465954     0.15200
H344        H  0.03598238  0.26161287  0.22070730     0.15800
C345        C  0.12818162  0.17649814  0.01750474    -0.13800
C346        C  0.15519717  0.14625708  0.00977982    -0.29000
H347        H  0.13901687  0.20814027  0.02136976     0.15200
H348        H  0.14523440  0.11429396  0.00664724     0.15800
C349        C  0.00163024  0.18226322  0.13928834    -0.13800
C350        C  0.99200094  0.15087655  0.16338001    -0.29000
H351        H  0.01200853  0.21162917  0.15216605     0.15200
H352        H  0.98249293  0.12155521  0.14944078     0.15800
C353        C  0.11242822  0.92280797  0.25489535    -0.13800
C354        C  0.14068059  0.91829346  0.22609732    -0.29000
H355        H  0.12075184  0.93310523  0.28543701     0.15200
H356        H  0.13085259  0.90812848  0.19586615     0.15800
C357        C  0.99131162  0.04727033  0.24476689    -0.13800
C358        C  0.00180967  0.07611161  0.21825136    -0.29000
H359        H  0.98333399  0.05689000  0.27538635     0.15200
H360        H  0.00838847  0.06698355  0.18717079     0.15800
C361        C  0.99714843  0.79406563  0.21481794    -0.13800
C362        C  0.02592507  0.77513770  0.19296698    -0.29000
H363        H  0.98107571  0.77641287  0.23705630     0.15200
H364        H  0.04493558  0.79284403  0.17327035     0.15800
C365        C  0.22707491  0.08898902  0.02316344    -0.13800
C366        C  0.25225644  0.05958940  0.00889079    -0.29000
H367        H  0.19957605  0.07936327  0.03776742     0.15200
H368        H  0.27986642  0.06812840  0.99392459     0.15800
C369        C  0.22610829  0.93686182  0.12997105    -0.13800
C370        C  0.19568891  0.94218362  0.15626907    -0.29000
H371        H  0.25679381  0.93399266  0.14193325     0.15200
H372        H  0.16458985  0.94301955  0.14523212     0.15800
C373        C  0.21413800  0.78169059  0.00537326    -0.13800
C374        C  0.19037119  0.81257562  0.99211996    -0.29000
H375        H  0.23991594  0.78976083  0.02490054     0.15200
H376        H  0.16559733  0.80609913  0.97099413     0.15800
C377        C  0.19966161  0.95707700  0.85287635    -0.13800
C378        C  0.22493179  0.93890172  0.87971294    -0.29000
H379        H  0.17119959  0.97051554  0.86256666     0.15200
H380        H  0.25295490  0.92560982  0.86844573     0.15800
C381        C  0.04109386  0.25382803  0.83014973    -0.13800
C382        C  0.03884628  0.29522091  0.82593425    -0.29000
H383        H  0.05813813  0.24386416  0.85664192     0.15200
H384        H  0.05470011  0.31328097  0.84953972     0.15800
C385        C  0.01081332  0.15486664  0.89124355    -0.13800
C386        C  0.99834081  0.18434930  0.86609822    -0.29000
H387        H  0.02651458  0.12757672  0.87981737     0.15200
H388        H  0.98420503  0.21207185  0.87891420     0.15800
C389        C  0.12402158  0.93765373  0.79355345    -0.13800
C390        C  0.15028620  0.95136514  0.76646961    -0.29000
H391        H  0.13481862  0.92550432  0.82196609     0.15200
H392        H  0.13845919  0.96198769  0.73760774     0.15800
C393        C  0.01522697  0.07754951  0.77885091    -0.13800
C394        C  0.00146777  0.10799248  0.80383662    -0.29000
H395        H  0.03167883  0.08591427  0.75216176     0.15200
H396        H  0.98403902  0.09980548  0.82996759     0.15800
C397        C  0.98756950  0.82305030  0.77119391    -0.13800
C398        C  0.97513468  0.79467902  0.79739292    -0.29000
H399        H  0.99320574  0.81276301  0.74017508     0.15200
H400        H  0.97054384  0.80323223  0.82901498     0.15800
C401        C  0.87619789  0.96369139  0.77943949    -0.13800
C402        C  0.85118411  0.94470421  0.75248031    -0.29000
H403        H  0.86396327  0.98381904  0.80306344     0.15200
H404        H  0.86399698  0.92565128  0.72826038     0.15800
C405        C  0.87874758  0.17545965  0.00939005    -0.13800
C406        C  0.85081190  0.14962017  0.02383087    -0.29000
H407        H  0.86858170  0.20535675  0.99867046     0.15200
H408        H  0.85954933  0.11945145  0.03483139     0.15800
C409        C  0.86941011  0.92664951  0.19303255    -0.13800
C410        C  0.83997089  0.91381391  0.21722919    -0.29000
H411        H  0.86218072  0.94154514  0.16484304     0.15200
H412        H  0.84883070  0.89983886  0.24564245     0.15800
C413        C  0.79185480  0.07648022  0.99552615    -0.13800
C414        C  0.76605600  0.10047466  0.01696724    -0.29000
H415        H  0.81955637  0.08883655  0.98389597     0.15200
H416        H  0.73818306  0.08671061  0.02718848     0.15800
C417        C  0.76910605  0.94986332  0.10445224    -0.13800
C418        C  0.79105661  0.92809912  0.13152376    -0.29000
H419        H  0.74419383  0.96880668  0.11539701     0.15200
H420        H  0.81622726  0.90890426  0.12174266     0.15800
C421        C  0.79146171  0.95549487  0.82695059    -0.13800
C422        C  0.76394471  0.96550062  0.85542256    -0.29000
H423        H  0.81930640  0.94025650  0.83607807     0.15200
H424        H  0.73577234  0.97995814  0.84635623     0.15800
C425        C  0.74537641  0.82634197  0.97133702    -0.13800
C426        C  0.77137526  0.79781907  0.98545337    -0.29000
H427        H  0.71679730  0.81687307  0.95737983     0.15200
H428        H  0.79985964  0.80824740  0.99907985     0.15800
C429        C  0.24249573  0.95830373  0.67357105    -0.13800
C430        C  0.21520186  0.94783646  0.70131835    -0.29000
H431        H  0.26666474  0.97971461  0.68193388     0.15200
H432        H  0.19134226  0.92597472  0.69295792     0.15800
C433        C  0.19694312  0.92231224  0.30595020    -0.13800
C434        C  0.20715177  0.94275869  0.34069286    -0.29000
H435        H  0.19003303  0.88943014  0.30615135     0.15200
H436        H  0.21248892  0.97596393  0.34046486     0.15800
C437        C  0.78629817  0.96086551  0.64200892    -0.13800
C438        C  0.79759784  0.94187313  0.67614555    -0.29000
H439        H  0.77612210  0.99288211  0.64351802     0.15200
H440        H  0.80837222  0.91006819  0.67439845     0.15800
C441        C  0.74817521  0.89338213  0.30384596    -0.13800
C442        C  0.77627290  0.91360704  0.28314084    -0.29000
H443        H  0.72416527  0.87751051  0.28667595     0.15200
H444        H  0.80186505  0.92847981  0.29857194     0.15800
C445        C  0.51070392  0.86264946  0.51419229    -0.13800
C446        C  0.48373072  0.86120518  0.48314098    -0.29000
H447        H  0.50028274  0.86396545  0.54519657     0.15200
H448        H  0.49421030  0.85971387  0.45217107     0.15800
C449        C  0.67696129  0.18500322  0.06755254    -0.13800
C450        C  0.69908514  0.16317513  0.04043065    -0.29000
H451        H  0.69304772  0.20275793  0.09119967     0.15200
H452        H  0.68443407  0.14476929  0.01638644     0.15800
C453        C  0.33907766  0.16037996  0.00182115    -0.13800
C454        C  0.30638037  0.14515084  0.02020991    -0.29000
H455        H  0.33567806  0.17245291  0.97153548     0.15200
H456        H  0.30956517  0.13255149  0.05028391     0.15800
C457        C  0.65539479  0.73202581  0.96893872    -0.13800
C458        C  0.68930329  0.74672854  0.98715510    -0.29000
H459        H  0.65704424  0.71668472  0.93928814     0.15200
H460        H  0.68770859  0.76308948  0.01628977     0.15800
C461        C  0.28773729  0.72617687  0.99297219    -0.13800
C462        C  0.32052459  0.72120109  0.96987828    -0.29000
H463        H  0.29133092  0.73069811  0.02558636     0.15200
H464        H  0.31722239  0.71884224  0.93708160     0.15800
C465        C  0.50669363  0.47446199  0.08301616    -0.13800
C466        C  0.47520055  0.44804752  0.08366216    -0.29000
H467        H  0.53735717  0.46253414  0.08473165     0.15200
H468        H  0.44450106  0.45994083  0.08218818     0.15800
loop_ 
_geom_bond_atom_site_label_1 
_geom_bond_atom_site_label_2 
_geom_bond_distance 
_geom_bond_site_symmetry_2 
_ccdc_geom_bond_type 
N1            N2   1.323   1_554  A
N1            C5   1.345       .  A
N1           Cu9   2.083       .  S
N2            C3   1.348       .  A
N2           Cu8   2.087       .  S
C3            C4   1.384       .  A
C3            H6   1.082       .  S
C4            C5   1.384   1_556  A
C4          C457   1.472       .  S
C5            H7   1.082       .  S
Cu8          N11   2.087       .  S
Cu9          N19   2.083       .  S
Cu10         N12   2.075       .  S
Cu10         N18   2.075       .  S
N11          N12   1.323   1_556  A
N11          C15   1.349       .  A
N12          C13   1.344       .  A
C13          C14   1.382   1_554  A
C13          H16   1.082       .  S
C14          C15   1.385       .  A
C14         C462   1.474       .  S
C15          H17   1.082       .  S
N18          N19   1.321       .  A
N18          C22   1.347       .  A
N19          C20   1.346       .  A
C20          C21   1.386       .  A
C20          H23   1.082       .  S
C21          C22   1.387       .  A
C21         C465   1.484       .  S
C22          H24   1.081       .  S
N25          N26   1.324       .  A
N25          C29   1.338       .  A
N25         Cu33   2.067       .  S
N26          C27   1.359       .  A
N26         Cu32   2.117       .  S
C27          C28   1.395       .  A
C27          H30   1.082       .  S
C28          C29   1.376       .  A
C28         C449   1.481       .  S
C29          H31   1.082       .  S
Cu32         N35   2.119       .  S
Cu33         N43   2.066       .  S
Cu34         N36   2.083       .  S
Cu34         N42   2.082       .  S
N35          N36   1.326       .  A
N35          C39   1.354       .  A
N36          C37   1.344       .  A
C37          C38   1.380       .  A
C37          H40   1.082       .  S
C38          C39   1.391       .  A
C38         C453   1.479       .  S
C39          H41   1.082   1_554  S
N42          N43   1.318       .  A
N42          C46   1.348       .  A
N43          C44   1.345       .  A
C44          C45   1.388       .  A
C44          H47   1.081       .  S
C45          C46   1.388       .  A
C45         C466   1.485       .  S
C46          H48   1.082       .  S
N49          N50   1.326       .  A
N49          C53   1.340       .  A
N49         Cu57   2.072       .  S
N50          C51   1.352       .  A
N50         Cu56   2.111       .  S
C51          C52   1.388       .  A
C51          H54   1.082       .  S
C52          C53   1.377       .  A
C52         C437   1.473       .  S
C53          H55   1.082       .  S
Cu56         N59   2.108       .  S
Cu57         N67   2.071       .  S
Cu58         N60   2.052       .  S
Cu58         N66   2.053       .  S
N59          N60   1.323       .  A
N59          C63   1.358       .  A
N60          C61   1.334       .  A
C61          C62   1.372       .  A
C61          H64   1.082       .  S
C62          C63   1.395       .  A
C62         C441   1.475       .  S
C63          H65   1.082       .  S
N66          N67   1.316       .  A
N66          C70   1.343       .  A
N67          C68   1.347       .  A
C68          C69   1.387       .  A
C68          H71   1.082       .  S
C69          C70   1.387       .  A
C69         C445   1.481       .  S
C70          H72   1.081       .  S
N73          N74   1.323       .  A
N73          C77   1.342       .  A
N73         Cu81   2.073       .  S
N74          C75   1.352       .  A
N74         Cu80   2.092       .  S
C75          C76   1.387       .  A
C75          H78   1.082       .  S
C76          C77   1.380       .  A
C76         C429   1.472       .  S
C77          H79   1.082       .  S
Cu80         N83   2.093       .  S
Cu81         N91   2.072       .  S
Cu82         N84   2.080       .  S
Cu82         N90   2.080       .  S
N83          N84   1.323       .  A
N83          C87   1.348       .  A
N84          C85   1.346       .  A
C85          C86   1.384       .  A
C85          H88   1.082       .  S
C86          C87   1.386       .  A
C86         C434   1.475       .  S
C87          H89   1.082       .  S
N90          N91   1.321       .  A
N90          C94   1.345       .  A
N91          C92   1.346       .  A
C92          C93   1.386       .  A
C92          H95   1.081       .  S
C93          C94   1.384       .  A
C93         C446   1.480       .  S
C94          H96   1.082       .  S
O97        Cu105   2.024   1_545  S
O97         C107   1.279       .  A
O98        Cu105   2.019       .  S
O98         C108   1.280       .  A
O99        Cu105   2.055       .  S
O99         C109   1.282       .  A
O100       Cu105   2.048   1_554  S
O100        C110   1.280       .  A
O101       Cu106   1.988   1_554  S
O101        C110   1.276       .  A
O102       Cu106   1.996       .  S
O102        C109   1.276       .  A
O103       Cu106   2.010       .  S
O103        C108   1.276       .  A
O104       Cu106   1.998   1_545  S
O104        C107   1.276       .  A
Cu105      Cu106   2.373       .  S
C107        C413   1.475       .  S
C108        C425   1.477       .  S
C109        C422   1.484       .  S
C110        C417   1.475       .  S
N111        C115   1.371       .  A
N111        C112   1.362       .  A
N111        C410   1.448       .  S
C112        C113   1.381       .  A
C112        C442   1.492       .  S
C113        C114   1.361       .  A
C113        H116   1.082       .  S
C114        C115   1.389       .  A
C114        H117   1.082       .  S
C115        C418   1.498       .  S
N118        C122   1.369       .  A
N118        C119   1.364       .  A
N118        C414   1.446       .  S
C119        C120   1.384       .  A
C119        C450   1.498       .  S
C120        C121   1.366       .  A
C120        H123   1.082       .  S
C121        C122   1.386       .  A
C121        H124   1.082       .  S
C122        C406   1.497       .  S
O125       Cu133   2.039       .  S
O125        C135   1.283       .  A
O126       Cu133   2.043   1_655  S
O126        C136   1.283       .  A
O127       Cu133   1.983   1_545  S
O127        C137   1.272       .  A
O128       Cu133   1.970   1_655  S
O128        C138   1.272       .  A
O129       Cu134   2.073       .  S
O129        C138   1.285       .  A
O130       Cu134   2.077   1_445  S
O130        C137   1.286       .  A
O131       Cu134   1.984       .  S
O131        C136   1.272       .  A
O132       Cu134   1.998   1_455  S
O132        C135   1.274       .  A
Cu133      Cu134   2.371   1_455  S
C135        C389   1.480       .  S
C136        C401   1.473       .  S
C137        C393   1.486       .  S
C138        C397   1.480       .  S
N139        C143   1.360       .  A
N139        C140   1.359       .  A
N139        C386   1.442   1_455  S
C140        C141   1.380       .  A
C140        C381   1.484       .  S
C141        C142   1.382       .  A
C141        H144   1.082       .  S
C142        C143   1.392       .  A
C142        H145   1.081       .  S
C143        C394   1.506       .  S
N146        C150   1.370       .  A
N146        C147   1.363       .  A
N146        C390   1.450       .  S
C147        C148   1.385       .  A
C147        C430   1.494       .  S
C148        C149   1.366       .  A
C148        H151   1.081       .  S
C149        C150   1.384       .  A
C149        H152   1.082       .  S
C150        C377   1.496       .  S
O153       Cu161   2.050       .  S
O153        C163   1.282       .  A
O154       Cu161   2.053   1_556  S
O154        C164   1.281       .  A
O155       Cu161   2.021   1_556  S
O155        C165   1.278       .  A
O156       Cu161   2.013   1_545  S
O156        C166   1.280       .  A
O157       Cu162   2.014       .  S
O157        C166   1.276   1_565  A
O158       Cu162   2.011       .  S
O158        C165   1.278   1_554  A
O159       Cu162   1.996   1_556  S
O159        C164   1.276       .  A
O160       Cu162   1.993       .  S
O160        C163   1.275       .  A
Cu161      Cu162   2.370       .  S
C163        C369   1.480       .  S
C164        C378   1.481       .  S
C165        C374   1.478       .  S
C166        C366   1.477       .  S
O167       Cu175   1.989       .  S
O167        C177   1.275   1_565  A
O168       Cu175   1.988       .  S
O168        C178   1.274       .  A
O169       Cu175   2.033   1_455  S
O169        C179   1.280       .  A
O170       Cu175   2.024       .  S
O170        C180   1.281       .  A
O171       Cu176   2.012       .  S
O171        C180   1.276       .  A
O172       Cu176   1.997   1_455  S
O172        C179   1.277       .  A
O173       Cu176   2.030       .  S
O173        C178   1.281       .  A
O174       Cu176   2.034       .  S
O174        C177   1.281   1_565  A
Cu175      Cu176   2.374       .  S
C177        C357   1.474       .  S
C178        C361   1.469       .  S
C179        C353   1.481       .  S
C180        C409   1.482       .  S
O181       Cu189   2.003   1_556  S
O181        C191   1.275       .  A
O182       Cu189   2.002       .  S
O182        C192   1.277       .  A
O183       Cu189   2.066   1_655  S
O183        C193   1.284       .  A
O184       Cu189   2.062       .  S
O184        C194   1.285       .  A
O185       Cu190   1.977       .  S
O185        C194   1.272       .  A
O186       Cu190   1.977   1_655  S
O186        C193   1.273       .  A
O187       Cu190   2.014       .  S
O187        C192   1.278       .  A
O188       Cu190   2.012   1_556  S
O188        C191   1.280       .  A
Cu189      Cu190   2.373       .  S
C191        C385   1.473       .  S
C192        C349   1.474       .  S
C193        C405   1.479       .  S
C194        C345   1.479       .  S
N195        C199   1.358   1_655  A
N195        C196   1.359       .  A
N195        C350   1.445       .  S
C196        C197   1.380   1_655  A
C196        C341   1.473       .  S
C197        C198   1.373       .  A
C197        H200   1.083       .  S
C198        C199   1.386       .  A
C198        H201   1.082       .  S
C199        C358   1.490       .  S
N202        C206   1.361       .  A
N202        C203   1.363       .  A
N202        C354   1.447       .  S
C203        C204   1.383       .  A
C203        C433   1.483       .  S
C204        C205   1.372       .  A
C204        H207   1.083       .  S
C205        C206   1.385       .  A
C205        H208   1.082       .  S
C206        C370   1.496       .  S
N209        C213   1.357       .  A
N209        C210   1.363       .  A
N209        C365   1.442       .  S
C210        C211   1.385   1_554  A
C210        C454   1.489       .  S
C211        C212   1.375       .  A
C211        H214   1.082       .  S
C212        C213   1.385   1_556  A
C212        H215   1.082       .  S
C213        C346   1.496       .  S
O216       Cu224   2.017   1_554  S
O216        C226   1.278       .  A
O217       Cu224   2.018       .  S
O217        C227   1.277       .  A
O218       Cu224   2.004   1_455  S
O218        C228   1.277       .  A
O219       Cu224   1.992   1_554  S
O219        C229   1.275   1_554  A
O220       Cu225   2.031       .  S
O220        C229   1.280       .  A
O221       Cu225   2.027   1_455  S
O221        C228   1.279       .  A
O222       Cu225   1.999       .  S
O222        C227   1.278       .  A
O223       Cu225   2.001   1_554  S
O223        C226   1.277       .  A
Cu224      Cu225   2.373       .  S
C226        C329   1.473   1_655  S
C227        C337   1.476       .  S
C228        C325   1.477       .  S
C229        C334   1.473       .  S
N230        C234   1.365       .  A
N230        C231   1.361       .  A
N230        C330   1.453       .  S
C231        C232   1.386       .  A
C231        C322   1.490       .  S
C232        C233   1.368       .  A
C232        H235   1.082       .  S
C233        C234   1.379       .  A
C233        H236   1.083       .  S
C234        C362   1.476       .  S
N237        C241   1.364       .  A
N237        C238   1.357       .  A
N237        C373   1.446   1_556  S
C238        C239   1.378       .  A
C238        C461   1.480       .  S
C239        C240   1.373       .  A
C239        H242   1.082       .  S
C240        C241   1.390       .  A
C240        H243   1.081       .  S
C241        C326   1.496       .  S
N244        C248   1.362       .  A
N244        C245   1.369       .  A
N244        C338   1.443       .  S
C245        C246   1.387       .  A
C245        C318   1.499       .  S
C246        C247   1.367       .  A
C246        H249   1.082       .  S
C247        C248   1.383       .  A
C247        H250   1.082       .  S
C248        C398   1.500       .  S
N251        C255   1.366       .  A
N251        C252   1.356       .  A
N251        C402   1.445       .  S
C252        C253   1.379       .  A
C252        C438   1.481       .  S
C253        C254   1.374       .  A
C253        H256   1.082       .  S
C254        C255   1.392       .  A
C254        H257   1.080       .  S
C255        C421   1.506       .  S
N258        C262   1.357       .  A
N258        C259   1.361       .  A
N258        C426   1.446       .  S
C259        C260   1.384       .  A
C259        C458   1.481       .  S
C260        C261   1.372       .  A
C260        H263   1.083       .  S
C261        C262   1.384       .  A
C261        H264   1.082       .  S
C262        C333   1.487       .  S
N265        N266   1.320       .  A
N265        C269   1.340       .  A
N265       Cu273   2.068       .  S
N266        C267   1.356       .  A
N266       Cu272   2.094       .  S
C267        C268   1.392       .  A
C267        H270   1.082       .  S
C268        C269   1.382       .  A
C268        C317   1.482       .  S
C269        H271   1.082       .  S
Cu272       N275   2.098       .  S
Cu273       N283   2.068       .  S
Cu274       N276   2.090       .  S
Cu274       N282   2.088       .  S
N275        N276   1.325       .  A
N275        C279   1.340   1_655  A
N276        C277   1.354   1_655  A
C277        C278   1.389       .  A
C277        H280   1.078       .  S
C278        C279   1.383       .  A
C278        C382   1.484       .  S
C279        H281   1.082       .  S
N282        N283   1.322       .  A
N282        C286   1.350       .  A
N283        C284   1.341       .  A
C284        C285   1.385       .  A
C284        H287   1.081       .  S
C285        C286   1.388       .  A
C285        C313   1.484       .  S
C286        H288   1.082       .  S
N289        N290   1.323       .  A
N289        C293   1.339       .  A
N289       Cu297   2.067       .  S
N290        C291   1.355       .  A
N290       Cu296   2.097       .  S
C291        C292   1.391       .  A
C291        H294   1.082   1_655  S
C292        C293   1.378       .  A
C292        C321   1.477       .  S
C293        H295   1.082       .  S
Cu296       N299   2.099       .  S
Cu297       N307   2.066       .  S
Cu298       N300   2.070       .  S
Cu298       N306   2.069       .  S
N299        N300   1.325       .  A
N299        C303   1.351       .  A
N300        C301   1.340       .  A
C301        C302   1.379       .  A
C301        H304   1.082       .  S
C302        C303   1.386       .  A
C302        C342   1.473   1_655  S
C303        H305   1.082   1_655  S
N306        N307   1.319       .  A
N306        C310   1.349       .  A
N307        C308   1.342       .  A
C308        C309   1.381       .  A
C308        H311   1.082       .  S
C309        C310   1.388       .  A
C309        C314   1.476       .  S
C310        H312   1.082       .  S
C313        C314   1.346       .  D
C313        H315   1.086       .  S
C314        H316   1.084       .  S
C317        C318   1.352       .  D
C317        H319   1.086       .  S
C318        H320   1.085       .  S
C321        C322   1.347   1_655  D
C321        H323   1.088       .  S
C322        H324   1.085       .  S
C325        C326   1.350       .  D
C325        H327   1.085       .  S
C326        H328   1.082       .  S
C329        C330   1.349       .  D
C329        H331   1.074       .  S
C330        H332   1.086   1_455  S
C333        C334   1.345       .  D
C333        H335   1.085       .  S
C334        H336   1.086   1_556  S
C337        C338   1.343       .  D
C337        H339   1.083       .  S
C338        H340   1.087       .  S
C341        C342   1.341   1_655  D
C341        H343   1.087       .  S
C342        H344   1.086       .  S
C345        C346   1.344       .  D
C345        H347   1.086       .  S
C346        H348   1.085       .  S
C349        C350   1.347   1_455  D
C349        H351   1.082       .  S
C350        H352   1.085       .  S
C353        C354   1.349       .  D
C353        H355   1.083       .  S
C354        H356   1.086       .  S
C357        C358   1.345   1_655  D
C357        H359   1.086       .  S
C358        H360   1.085       .  S
C361        C362   1.340   1_655  D
C361        H363   1.088       .  S
C362        H364   1.086       .  S
C365        C366   1.342       .  D
C365        H367   1.086       .  S
C366        H368   1.085   1_554  S
C369        C370   1.348       .  D
C369        H371   1.087       .  S
C370        H372   1.085       .  S
C373        C374   1.346   1_554  D
C373        H375   1.087       .  S
C374        H376   1.083       .  S
C377        C378   1.351       .  D
C377        H379   1.085       .  S
C378        H380   1.088       .  S
C381        C382   1.349       .  D
C381        H383   1.087       .  S
C382        H384   1.088       .  S
C385        C386   1.339   1_455  D
C385        H387   1.084       .  S
C386        H388   1.088       .  S
C389        C390   1.341       .  D
C389        H391   1.081       .  S
C390        H392   1.087       .  S
C393        C394   1.349       .  D
C393        H395   1.084       .  S
C394        H396   1.085   1_455  S
C397        C398   1.346       .  D
C397        H399   1.087       .  S
C398        H400   1.085       .  S
C401        C402   1.340       .  D
C401        H403   1.085       .  S
C402        H404   1.087       .  S
C405        C406   1.348       .  D
C405        H407   1.087   1_554  S
C406        H408   1.085       .  S
C409        C410   1.343       .  D
C409        H411   1.081       .  S
C410        H412   1.087       .  S
C413        C414   1.348   1_556  D
C413        H415   1.080       .  S
C414        H416   1.087       .  S
C417        C418   1.352       .  D
C417        H419   1.086       .  S
C418        H420   1.085       .  S
C421        C422   1.352       .  D
C421        H423   1.085       .  S
C422        H424   1.082       .  S
C425        C426   1.345       .  D
C425        H427   1.084       .  S
C426        H428   1.086       .  S
C429        C430   1.347       .  D
C429        H431   1.084       .  S
C430        H432   1.086       .  S
C433        C434   1.345       .  D
C433        H435   1.086       .  S
C434        H436   1.087       .  S
C437        C438   1.344       .  D
C437        H439   1.086       .  S
C438        H440   1.086       .  S
C441        C442   1.344       .  D
C441        H443   1.088       .  S
C442        H444   1.085       .  S
C445        C446   1.346       .  D
C445        H447   1.085       .  S
C446        H448   1.085       .  S
C449        C450   1.349       .  D
C449        H451   1.087       .  S
C450        H452   1.086       .  S
C453        C454   1.349       .  D
C453        H455   1.086   1_554  S
C454        H456   1.086       .  S
C457        C458   1.344       .  D
C457        H459   1.087       .  S
C458        H460   1.086   1_556  S
C461        C462   1.343       .  D
C461        H463   1.086   1_556  S
C462        H464   1.086       .  S
C465        C466   1.348       .  D
C465        H467   1.085       .  S
C466        H468   1.085       .  S
