geometry optimzed in LAMMPS
_audit_creation_date              2020-11-30 
_audit_creation_method            'lammps2cif' 
_symmetry_space_group_name_H-M    'P1' 
_symmetry_Int_Tables_number       1 
_symmetry_cell_setting            triclinic 
loop_ 
_symmetry_equiv_pos_as_xyz 
  x,y,z 
_cell_length_a                    28.48290631 
_cell_length_b                    28.482524220352275 
_cell_length_c                    28.482757140820475 
_cell_angle_alpha                 90.00005300768218 
_cell_angle_beta                  90.00043164811284 
_cell_angle_gamma                 89.99971503508387 
loop_ 
_atom_site_label 
_atom_site_type_symbol 
_atom_site_fract_x 
_atom_site_fract_y 
_atom_site_fract_z 
_atom_site_charge 
C1          C  0.96065075  0.01131847  0.02599461     0.03500
C2          C  0.97412382  0.03932847  0.98858357     0.03500
C3          C  0.01151458  0.02583709  0.96055670     0.03500
C4          C  0.03952533  0.98842624  0.97402868     0.03500
C5          C  0.02605175  0.96041626  0.01143942     0.03500
C6          C  0.98866355  0.97390947  0.03946880     0.03500
O7          O  0.05673902  0.15038349  0.86757211    -0.78900
O8          O  0.94342886  0.34940974  0.86759538    -0.78900
O9          O  0.94065855  0.23572411  0.79754308    -0.78900
O10         O  0.05950332  0.26408469  0.79753886    -0.78900
O11         O  0.89808917  0.27133616  0.85238606    -0.79000
O12         O  0.10208019  0.22845607  0.85236579    -0.78900
O13         O  0.98344763  0.32956850  0.80541416    -0.78900
O14         O  0.01671883  0.17023848  0.80539628    -0.78900
C15         C  0.04740044  0.14369873  0.82429618     1.10800
C16         C  0.95276974  0.35610688  0.82432038     1.10700
C17         C  0.90785116  0.26324853  0.80958350     1.10800
C18         C  0.09231568  0.23656085  0.80956598     1.10700
O19         O  0.07975089  0.26651935  0.94462528    -0.78900
O20         O  0.92042865  0.23325244  0.94462872    -0.79000
O21         O  0.97864584  0.14789259  0.89764593    -0.78900
O22         O  0.02152557  0.35188956  0.89766418    -0.78900
O23         O  0.98591127  0.30931048  0.95249723    -0.79000
O24         O  0.01426893  0.19046125  0.95248297    -0.78900
O25         O  0.09959771  0.30654741  0.88245212    -0.78900
O26         O  0.90057514  0.19323812  0.88244774    -0.78900
Co27       Co  0.05742904  0.21284633  0.90379433     1.51500
Co28       Co  0.94274485  0.28693730  0.90380877     1.51700
Co29       Co  0.96303974  0.19255358  0.84622548     1.51600
Co30       Co  0.03712834  0.30724143  0.84623451     1.51500
O31         O  0.00008506  0.24989468  0.87501557    -1.40800
C32         C  0.10629159  0.29719945  0.92572552     1.10700
C33         C  0.89388779  0.20257439  0.92572417     1.10800
C34         C  0.98674662  0.15765040  0.94044773     1.10700
C35         C  0.01343550  0.34212017  0.94046461     1.10700
O36         O  0.86770485  0.05655251  0.15050907    -0.78900
O37         O  0.86769708  0.94325596  0.34953604    -0.78900
O38         O  0.79767239  0.94046944  0.23584554    -0.78900
O39         O  0.79766356  0.05933236  0.26418798    -0.78900
O40         O  0.85250883  0.89790120  0.27146914    -0.79000
O41         O  0.85250214  0.10190510  0.22857432    -0.78900
O42         O  0.80552115  0.98327391  0.32967342    -0.78900
O43         O  0.80553134  0.01652780  0.17036289    -0.78900
C44         C  0.82442825  0.04720767  0.14382168     1.10800
C45         C  0.82441861  0.95259735  0.35621789     1.10700
C46         C  0.80970799  0.90765916  0.26336873     1.10800
C47         C  0.80970062  0.09214524  0.23666882     1.10700
O48         O  0.94474639  0.07957831  0.26665916    -0.78900
O49         O  0.94475862  0.92023165  0.23340138    -0.79000
O50         O  0.89778341  0.97845964  0.14803220    -0.78900
O51         O  0.89776622  0.02135093  0.35201845    -0.78900
O52         O  0.95260979  0.98573286  0.30945509    -0.79000
O53         O  0.95261742  0.01408232  0.19060387    -0.78900
O54         O  0.88256325  0.09942270  0.30667377    -0.78900
O55         O  0.88258323  0.90038476  0.19337544    -0.78900
Co56       Co  0.90392624  0.05724800  0.21297677     1.51500
Co57       Co  0.90392676  0.94256246  0.28707463     1.51700
Co58       Co  0.84636004  0.96285141  0.19268384     1.51600
Co59       Co  0.84634707  0.03695373  0.30735802     1.51500
O60         O  0.87514122  0.99990386  0.25002317    -1.40800
C61         C  0.92583874  0.10611814  0.29733593     1.10700
C62         C  0.92585570  0.89368806  0.20272326     1.10800
C63         C  0.94058386  0.98655509  0.15779616     1.10700
C64         C  0.94056909  0.01325956  0.34226050     1.10700
C65         C  0.96065708  0.98847711  0.47404680     0.03500
C66         C  0.98866091  0.02589577  0.46058288     0.03500
C67         C  0.02605206  0.03938422  0.48861095     0.03500
C68         C  0.03953458  0.01136461  0.52601097     0.03500
C69         C  0.01153234  0.97394406  0.53947319     0.03500
C70         C  0.97414101  0.96045510  0.51144527     0.03500
O71         O  0.05676422  0.84941233  0.63245145    -0.78900
O72         O  0.94343668  0.65039988  0.63247143    -0.78900
O73         O  0.94066781  0.76409971  0.70249119    -0.78900
O74         O  0.05951716  0.73573004  0.70250573    -0.78900
O75         O  0.89809699  0.72847855  0.64765505    -0.79000
O76         O  0.10209943  0.77133787  0.64767185    -0.78900
O77         O  0.98345725  0.67025676  0.69464689    -0.78900
O78         O  0.01673601  0.82957386  0.69462728    -0.78900
C79         C  0.04742072  0.85610848  0.67572439     1.10800
C80         C  0.95277585  0.64371529  0.67574749     1.10700
C81         C  0.90785558  0.73657845  0.69045625     1.10800
C82         C  0.09233006  0.76324950  0.69047303     1.10700
O83         O  0.07977583  0.73325478  0.55542135    -0.78900
O84         O  0.92044042  0.76653973  0.55540397    -0.79000
O85         O  0.97867291  0.85190170  0.60236938    -0.78900
O86         O  0.02153133  0.64790418  0.60240166    -0.78900
O87         O  0.98592257  0.69047292  0.54755643    -0.79000
O88         O  0.01429485  0.80931926  0.54754262    -0.78900
O89         O  0.09961172  0.69323702  0.61760518    -0.78900
O90         O  0.90059440  0.80657075  0.61757629    -0.78900
Co91       Co  0.05745147  0.78694082  0.59623927     1.51500
Co92       Co  0.94275561  0.71286191  0.59623829     1.51700
Co93       Co  0.96305824  0.80725534  0.65379934     1.51600
Co94       Co  0.03713969  0.69256308  0.65382045     1.51500
O95         O  0.00010090  0.74990534  0.62502375    -1.40800
C96         C  0.10631131  0.70257486  0.57432915     1.10700
C97         C  0.89390334  0.79722392  0.57430131     1.10800
C98         C  0.98677309  0.84213388  0.55956975     1.10700
C99         C  0.01344703  0.65766590  0.55959824     1.10700
O100        O  0.15057646  0.86744694  0.05666999    -0.78900
O101        O  0.34959828  0.86746750  0.94336360    -0.78900
O102        O  0.23591415  0.79742827  0.94058619    -0.78900
O103        O  0.26426878  0.79741679  0.05943613    -0.78900
O104        O  0.27152519  0.85227211  0.89801882    -0.79000
O105        O  0.22864477  0.85224521  0.10201469    -0.78900
O106        O  0.32974961  0.80528781  0.98338194    -0.78900
O107        O  0.17043414  0.80527459  0.01664458    -0.78900
C108        C  0.14389545  0.82417106  0.04733041     1.10800
C109        C  0.35629054  0.82419269  0.95270417     1.10700
C110        C  0.26343962  0.80946920  0.90778125     1.10800
C111        C  0.23674985  0.80944498  0.09225159     1.10700
O112        O  0.26671191  0.94450247  0.07968250    -0.78900
O113        O  0.23345232  0.94451853  0.92036041    -0.79000
O114        O  0.14808588  0.89752521  0.97857974    -0.78900
O115        O  0.35208217  0.89753699  0.02146151    -0.78900
O116        O  0.30950935  0.95237539  0.98584665    -0.79000
O117        O  0.19065322  0.95236374  0.01420044    -0.78900
O118        O  0.30673556  0.88232549  0.09952926    -0.78900
O119        O  0.19343078  0.88234202  0.90050566    -0.78900
Co120      Co  0.21303703  0.90367376  0.05736174     1.51500
Co121      Co  0.28713101  0.90369021  0.94267832     1.51700
Co122      Co  0.19274560  0.84610944  0.96296825     1.51600
Co123      Co  0.30742823  0.84610978  0.03706134     1.51500
O124        O  0.25008521  0.87489648  0.00001704    -1.40800
C125        C  0.29739179  0.92559925  0.10622207     1.10700
C126        C  0.20277292  0.92561694  0.89381698     1.10800
C127        C  0.15784543  0.94032692  0.98667471     1.10700
C128        C  0.34232058  0.94033917  0.01336781     1.10700
O129        O  0.98350448  0.82953853  0.19466146    -0.78900
O130        O  0.01679861  0.67020295  0.19465899    -0.78900
O131        O  0.89814075  0.77128998  0.14771342    -0.78900
O132        O  0.10213801  0.72844172  0.14766397    -0.78900
O133        O  0.94072945  0.73567591  0.20254024    -0.79000
O134        O  0.05957344  0.76405572  0.20250929    -0.78900
O135        O  0.05680969  0.65035843  0.13247352    -0.78900
O136        O  0.94346686  0.84937189  0.13248992    -0.78900
C137        C  0.95281950  0.85607444  0.17576093     1.10800
C138        C  0.04748099  0.64366862  0.17575133     1.10700
C139        C  0.90791194  0.76319386  0.19051263     1.10800
C140        C  0.09238035  0.73653080  0.19046754     1.10700
O141        O  0.09963247  0.80653221  0.11758788    -0.78900
O142        O  0.90062555  0.69319114  0.11763915    -0.79000
O143        O  0.98592561  0.80928413  0.04757590    -0.78900
O144        O  0.01430109  0.69043648  0.04757376    -0.78900
O145        O  0.97870605  0.64786116  0.10242151    -0.79000
O146        O  0.02155423  0.85186675  0.10239844    -0.78900
O147        O  0.07977176  0.76650667  0.05541660    -0.78900
O148        O  0.92045236  0.73321791  0.05545831    -0.78900
Co149      Co  0.03717635  0.80721588  0.15382357     1.51500
Co150      Co  0.96310398  0.69251468  0.15384626     1.51700
Co151      Co  0.94277880  0.78690043  0.09627686     1.51600
Co152      Co  0.05747415  0.71282505  0.09625053     1.51500
O153        O  0.00013312  0.74986374  0.12504996    -1.40800
C154        C  0.10631070  0.79719146  0.07430983     1.10700
C155        C  0.89391787  0.70253760  0.07436621     1.10800
C156        C  0.01344558  0.84210143  0.05959997     1.10700
C157        C  0.98678228  0.65762612  0.05961751     1.10700
C158        C  0.26152388  0.78934165  0.22406872     0.03500
C159        C  0.22415062  0.76129437  0.21057005     0.03500
C160        C  0.21069021  0.72387688  0.23857753     0.03500
C161        C  0.23870239  0.71041709  0.27599221     0.03500
C162        C  0.27607443  0.73846466  0.28949142     0.03500
C163        C  0.28953341  0.77588297  0.26148533     0.03500
O164        O  0.17046176  0.69450433  0.51668774    -0.78900
O165        O  0.32977583  0.69453298  0.48344964    -0.78900
O166        O  0.22868196  0.64752728  0.60206905    -0.78900
O167        O  0.27158696  0.64753371  0.39807114    -0.78900
O168        O  0.26428732  0.70237552  0.55950343    -0.79000
O169        O  0.23595342  0.70236716  0.44063531    -0.78900
O170        O  0.34964856  0.63235838  0.44343388    -0.78900
O171        O  0.15061593  0.63232851  0.55671447    -0.78900
C172        C  0.14392007  0.67560211  0.54736807     1.10800
C173        C  0.35632048  0.67563757  0.45276993     1.10700
C174        C  0.23676315  0.69033113  0.59230849     1.10800
C175        C  0.26347490  0.69033477  0.40782341     1.10700
O176        O  0.19349901  0.61744464  0.40055179    -0.78900
O177        O  0.30677979  0.61746834  0.59958896    -0.79000
O178        O  0.19072048  0.54741812  0.51424111    -0.78900
O179        O  0.30958557  0.54743858  0.48590857    -0.78900
O180        O  0.35213972  0.60229007  0.52152581    -0.79000
O181        O  0.14814540  0.60224930  0.47862008    -0.78900
O182        O  0.23353210  0.55527494  0.42040507    -0.78900
O183        O  0.26676804  0.55528725  0.57972819    -0.78900
Co184      Co  0.19279553  0.65367466  0.46301525     1.51500
Co185      Co  0.30746674  0.65369924  0.53712686     1.51700
Co186      Co  0.21308649  0.59610806  0.55740859     1.51600
Co187      Co  0.28719655  0.59611761  0.44273590     1.51500
O188        O  0.25013626  0.62489970  0.50007177    -1.40800
C189        C  0.20285273  0.57417167  0.39385906     1.10700
C190        C  0.29744442  0.57419121  0.60627232     1.10800
C191        C  0.15791220  0.55944899  0.48671526     1.10700
C192        C  0.34239068  0.55948488  0.51343325     1.10700
C193        C  0.26151272  0.71042139  0.72409678     0.03500
C194        C  0.22409850  0.73842738  0.71062324     0.03500
C195        C  0.21063165  0.77584592  0.73862578     0.03500
C196        C  0.23866721  0.78934975  0.77600598     0.03500
C197        C  0.27608182  0.76134399  0.78947843     0.03500
C198        C  0.28954879  0.72392526  0.76147667     0.03500
O199        O  0.40058676  0.80655542  0.88246332    -0.78900
O200        O  0.59960628  0.69323531  0.88248815    -0.78900
O201        O  0.48591336  0.69048637  0.95253194    -0.78900
O202        O  0.51427780  0.80933145  0.95250334    -0.78900
O203        O  0.52153395  0.64789998  0.89770718    -0.79000
O204        O  0.47866296  0.85189530  0.89765795    -0.78900
O205        O  0.57975936  0.73326893  0.94465803    -0.78900
O206        O  0.42043346  0.76654570  0.94464920    -0.78900
C207        C  0.39389425  0.79722108  0.92574068     1.10800
C208        C  0.60629660  0.70258413  0.92576263     1.10700
C209        C  0.51343226  0.65766884  0.94050626     1.10800
C210        C  0.48675158  0.84213598  0.94046119     1.10700
O211        O  0.51673252  0.82954696  0.80541212    -0.78900
O212        O  0.48345947  0.67022052  0.80545203    -0.79000
O213        O  0.39809990  0.72845285  0.85240578    -0.78900
O214        O  0.60209489  0.77132409  0.85240235    -0.78900
O215        O  0.55952084  0.73569614  0.79757329    -0.79000
O216        O  0.44067365  0.76405978  0.79756346    -0.78900
O217        O  0.55675634  0.84940441  0.86758570    -0.78900
O218        O  0.44343948  0.65038271  0.86763297    -0.78900
Co219      Co  0.46305428  0.80723268  0.84624334     1.51500
Co220      Co  0.53713991  0.69254336  0.84627117     1.51700
Co221      Co  0.44275296  0.71285764  0.90383639     1.51600
Co222      Co  0.55744166  0.78694291  0.90382117     1.51500
O223        O  0.50009756  0.74989435  0.87504297    -1.40800
C224        C  0.54741209  0.85609158  0.82431031     1.10700
C225        C  0.45278013  0.64368481  0.82435959     1.10800
C226        C  0.40786266  0.73653981  0.80960273     1.10700
C227        C  0.59233107  0.76322130  0.80960305     1.10700
C228        C  0.77606562  0.23847248  0.78947357     0.03500
C229        C  0.78953648  0.27589307  0.76147474     0.03500
C230        C  0.76152890  0.28937107  0.72406414     0.03500
C231        C  0.72414684  0.26133912  0.71055824     0.03500
C232        C  0.71067666  0.22391776  0.73855594     0.03500
C233        C  0.73868388  0.21044028  0.77596709     0.03500
O234        O  0.88252676  0.40040571  0.80669555    -0.78900
O235        O  0.88252922  0.59943265  0.69338706    -0.78900
O236        O  0.95257431  0.48574155  0.69062210    -0.78900
O237        O  0.95256761  0.51409899  0.80947469    -0.78900
O238        O  0.89774235  0.52136314  0.64804500    -0.79000
O239        O  0.89772840  0.47847877  0.85204171    -0.78900
O240        O  0.94470621  0.57958309  0.73340918    -0.78900
O241        O  0.94470603  0.42025666  0.76667979    -0.78900
C242        C  0.92580132  0.39371410  0.79735649     1.10800
C243        C  0.92580594  0.60612050  0.70272614     1.10700
C244        C  0.94054276  0.51326254  0.65780845     1.10800
C245        C  0.94053007  0.48657489  0.84228373     1.10700
O246        O  0.80548100  0.51655208  0.82970903    -0.78900
O247        O  0.80549224  0.48328408  0.67036854    -0.79000
O248        O  0.85245684  0.39792445  0.72859826    -0.78900
O249        O  0.85245631  0.60191424  0.77148034    -0.78900
O250        O  0.79762229  0.55934051  0.73585943    -0.79000
O251        O  0.79762067  0.44049740  0.76421647    -0.78900
O252        O  0.86765736  0.55657565  0.84955729    -0.78900
O253        O  0.86767355  0.44326610  0.65052658    -0.78900
Co254      Co  0.84630734  0.46287417  0.80738379     1.51500
Co255      Co  0.84631335  0.53696450  0.69269665     1.51700
Co256      Co  0.90388443  0.44257802  0.71299799     1.51600
Co257      Co  0.90388005  0.55726261  0.78709011     1.51500
O258        O  0.87509629  0.49992010  0.75004241    -1.40800
C259        C  0.82438305  0.54722937  0.85625190     1.10700
C260        C  0.82439886  0.45260785  0.64382892     1.10800
C261        C  0.80965537  0.40768800  0.73669196     1.10700
C262        C  0.80965579  0.59214793  0.76338713     1.10700
O263        O  0.98348271  0.17026359  0.30540941    -0.78900
O264        O  0.01678082  0.32958544  0.30541910    -0.78900
O265        O  0.89812327  0.22850984  0.35236460    -0.78900
O266        O  0.10211943  0.27135132  0.35239501    -0.78900
O267        O  0.94071144  0.26412270  0.29753782    -0.79000
O268        O  0.05954523  0.23573574  0.29755764    -0.78900
O269        O  0.05679256  0.34943025  0.36760383    -0.78900
O270        O  0.94344721  0.15042457  0.36757934    -0.78900
C271        C  0.95279811  0.14372632  0.32430810     1.10800
C272        C  0.04746492  0.35611759  0.32432761     1.10700
C273        C  0.90789603  0.23660321  0.30956533     1.10800
C274        C  0.09235631  0.26325716  0.30959298     1.10700
O275        O  0.09961746  0.19325919  0.38247121    -0.78900
O276        O  0.90061530  0.30660562  0.38244023    -0.79000
O277        O  0.98591287  0.19051087  0.45249565    -0.78900
O278        O  0.01429725  0.30934991  0.45250161    -0.78900
O279        O  0.97869421  0.35193095  0.39766145    -0.79000
O280        O  0.02153659  0.14792890  0.39767049    -0.78900
O281        O  0.07976574  0.23328212  0.44464615    -0.78900
O282        O  0.92044926  0.26657883  0.44461879    -0.78900
Co283      Co  0.03715591  0.19257831  0.34624472     1.51500
Co284      Co  0.96308892  0.30728080  0.34623232     1.51700
Co285      Co  0.94276380  0.21289490  0.40379778     1.51600
Co286      Co  0.05746279  0.28696370  0.40381838     1.51500
O287        O  0.00011739  0.24992943  0.37502331    -1.40800
C288        C  0.10630448  0.20260177  0.42574744     1.10700
C289        C  0.89391789  0.29726394  0.42571478     1.10800
C290        C  0.01343441  0.15769649  0.44046953     1.10700
C291        C  0.98677926  0.34216389  0.44046380     1.10700
C292        C  0.23867206  0.28931714  0.22403287     0.03500
C293        C  0.21065472  0.27585470  0.26144156     0.03500
C294        C  0.22411969  0.23844805  0.28946090     0.03500
C295        C  0.26150954  0.21041396  0.27598182     0.03500
C296        C  0.28952624  0.22387450  0.23857208     0.03500
C297        C  0.27605975  0.26127986  0.21055233     0.03500
O298        O  0.17043162  0.30525086  0.98337835    -0.78900
O299        O  0.32976757  0.30521652  0.01664918    -0.78900
O300        O  0.22866797  0.35221759  0.89802161    -0.78900
O301        O  0.27154656  0.35219562  0.10200775    -0.78900
O302        O  0.26427607  0.29736991  0.94058945    -0.79000
O303        O  0.23591411  0.29737083  0.05943188    -0.78900
O304        O  0.34962211  0.36739264  0.05667044    -0.78900
O305        O  0.15059622  0.36743464  0.94336007    -0.78900
C306        C  0.14389709  0.32415995  0.95269780     1.10800
C307        C  0.35630873  0.32411843  0.04733127     1.10700
C308        C  0.23675373  0.30941337  0.90778136     1.10800
C309        C  0.26344231  0.30939665  0.09224069     1.10700
O310        O  0.19346155  0.38229220  0.09952835    -0.78900
O311        O  0.30676561  0.38227753  0.90050903    -0.79000
O312        O  0.19069722  0.45233260  0.98584441    -0.78900
O313        O  0.30955219  0.45230612  0.01419710    -0.78900
O314        O  0.35211617  0.39746414  0.97857686    -0.79000
O315        O  0.14811428  0.39750294  0.02145876    -0.78900
O316        O  0.23349641  0.44445976  0.07967685    -0.78900
O317        O  0.26675583  0.44445914  0.92037097    -0.78900
Co318      Co  0.19276091  0.34607022  0.03705984     1.51500
Co319      Co  0.30745026  0.34604899  0.96297119     1.51700
Co320      Co  0.21306952  0.40364206  0.94267865     1.51600
Co321      Co  0.28716305  0.40362124  0.05735783     1.51500
O322        O  0.25011080  0.37484451  0.00001668    -1.40800
C323        C  0.20281630  0.42556471  0.10622064     1.10700
C324        C  0.29743401  0.42555547  0.89382922     1.10800
C325        C  0.15788258  0.44030297  0.01336368     1.10700
C326        C  0.34236084  0.44026695  0.98667431     1.10700
C327        C  0.27607040  0.23846910  0.71056268     0.03500
C328        C  0.23864845  0.21046672  0.72402019     0.03500
C329        C  0.21062942  0.22394653  0.76142167     0.03500
C330        C  0.22412260  0.26133056  0.78945750     0.03500
C331        C  0.26154431  0.28933277  0.77599947     0.03500
C332        C  0.28956235  0.27585455  0.73859664     0.03500
O333        O  0.59963498  0.30657694  0.61757862    -0.78900
O334        O  0.40061125  0.19326221  0.61756784    -0.78900
O335        O  0.51430171  0.19050388  0.54752911    -0.78900
O336        O  0.48594248  0.30935811  0.54754498    -0.78900
O337        O  0.47868736  0.14792511  0.60236162    -0.79000
O338        O  0.52156083  0.35192039  0.60238999    -0.78900
O339        O  0.42045253  0.23329319  0.55539420    -0.78900
O340        O  0.57978532  0.26656105  0.55539722    -0.78900
C341        C  0.60632503  0.29723968  0.57430236     1.10800
C342        C  0.39391560  0.20260856  0.57429399     1.10700
C343        C  0.48677709  0.15769469  0.55956111     1.10800
C344        C  0.51346469  0.34216737  0.55958661     1.10700
O345        O  0.48349407  0.32956117  0.69463648    -0.78900
O346        O  0.51675463  0.17025134  0.69461580    -0.79000
O347        O  0.60212548  0.22847729  0.64763807    -0.78900
O348        O  0.39812155  0.27135472  0.64765144    -0.78900
O349        O  0.44069589  0.23573018  0.70248212    -0.79000
O350        O  0.55955509  0.26408279  0.70248276    -0.78900
O351        O  0.44347014  0.34942488  0.63246472    -0.78900
O352        O  0.55677984  0.15040547  0.63243986    -0.78900
Co353      Co  0.53717132  0.30725540  0.65380375     1.51500
Co354      Co  0.46307805  0.19257340  0.65378910     1.51700
Co355      Co  0.55746722  0.21287604  0.59621833     1.51600
Co356      Co  0.44277836  0.28696708  0.59622977     1.51500
O357        O  0.50012396  0.24991823  0.62500932    -1.40800
C358        C  0.45281256  0.35610354  0.67574205     1.10700
C359        C  0.54743464  0.14371111  0.67571438     1.10800
C360        C  0.59236409  0.23656135  0.69044085     1.10700
C361        C  0.40788172  0.26325018  0.69045191     1.10700
O362        O  0.30545542  0.98324976  0.17036071    -0.78900
O363        O  0.30544903  0.01653092  0.32969669    -0.78900
O364        O  0.35241522  0.89789063  0.22860024    -0.78900
O365        O  0.35242786  0.10187845  0.27145933    -0.78900
O366        O  0.29758133  0.94047020  0.26421385    -0.79000
O367        O  0.29759448  0.05930562  0.23583802    -0.78900
O368        O  0.36763094  0.05654752  0.34953940    -0.78900
O369        O  0.36763025  0.94322099  0.15052181    -0.78900
C370        C  0.32435730  0.95256701  0.14382531     1.10800
C371        C  0.32435607  0.04721141  0.35623280     1.10700
C372        C  0.30961428  0.90765901  0.23669072     1.10800
C373        C  0.30962704  0.09211166  0.26336616     1.10700
O374        O  0.38251422  0.09938673  0.19337187    -0.78900
O375        O  0.38248982  0.90038059  0.30669273    -0.79000
O376        O  0.45253755  0.98569308  0.19061027    -0.78900
O377        O  0.45253248  0.01406001  0.30946031    -0.78900
O378        O  0.39769513  0.97844907  0.35203619    -0.79000
O379        O  0.39771091  0.02131385  0.14802829    -0.78900
O380        O  0.44468308  0.07952521  0.23339917    -0.78900
O381        O  0.44466608  0.92023440  0.26667358    -0.78900
Co382      Co  0.34628474  0.03692528  0.19268012     1.51500
Co383      Co  0.34627055  0.96284682  0.30737854     1.51700
Co384      Co  0.40384433  0.94253823  0.21299092     1.51600
Co385      Co  0.40384983  0.05722363  0.28707442     1.51500
O386        O  0.37506081  0.99988333  0.25003095    -1.40800
C387        C  0.42579052  0.10606620  0.20271637     1.10700
C388        C  0.42576735  0.89369870  0.29735652     1.10800
C389        C  0.44051010  0.01321232  0.15779470     1.10700
C390        C  0.44049674  0.98654256  0.34227388     1.10700
C391        C  0.47414648  0.03938585  0.51144613     0.03500
C392        C  0.46065839  0.01136026  0.47405289     0.03500
C393        C  0.48867357  0.97395589  0.46057413     0.03500
C394        C  0.52609038  0.96048847  0.48857857     0.03500
C395        C  0.53957825  0.98851477  0.52597233     0.03500
C396        C  0.51155965  0.02591618  0.53945485     0.03500
O397        O  0.42044312  0.73330268  0.44468213    -0.78900
O398        O  0.57976276  0.76658019  0.44462954    -0.78900
O399        O  0.47865658  0.64793953  0.39770347    -0.78900
O400        O  0.52152080  0.85193502  0.39766695    -0.78900
O401        O  0.51429140  0.69052429  0.45251984    -0.79000
O402        O  0.48592140  0.80936621  0.45251755    -0.78900
O403        O  0.59959416  0.80659819  0.38244538    -0.78900
O404        O  0.40057981  0.69327583  0.38251274    -0.78900
C405        C  0.39390273  0.70261762  0.42578918     1.10800
C406        C  0.60629618  0.79725920  0.42571933     1.10700
C407        C  0.48676651  0.65771063  0.44050037     1.10800
C408        C  0.51344200  0.84217442  0.44047177     1.10700
O409        O  0.44342012  0.84943856  0.36761329    -0.78900
O410        O  0.55673980  0.65042373  0.36760348    -0.79000
O411        O  0.44063909  0.73574296  0.29758961    -0.78900
O412        O  0.55948514  0.76411027  0.29755180    -0.78900
O413        O  0.60207577  0.72849758  0.35237712    -0.79000
O414        O  0.39807746  0.77136443  0.35243225    -0.78900
O415        O  0.48342577  0.82957660  0.30543015    -0.78900
O416        O  0.51669976  0.67026284  0.30543551    -0.78900
Co417      Co  0.44274564  0.78697859  0.40384348     1.51500
Co418      Co  0.55743710  0.71289602  0.40381590     1.51700
Co419      Co  0.46303396  0.69258591  0.34627596     1.51600
Co420      Co  0.53711710  0.80727558  0.34624302     1.51500
O421        O  0.50008357  0.74993413  0.37504469    -1.40800
C422        C  0.45274715  0.85611587  0.32433394     1.10700
C423        C  0.54738412  0.64372442  0.32433282     1.10800
C424        C  0.40783312  0.76326897  0.30962921     1.10700
C425        C  0.59230245  0.73659253  0.30957809     1.10700
O426        O  0.55547647  0.92023217  0.76665186    -0.78900
O427        O  0.55549273  0.07957026  0.73336952    -0.78900
O428        O  0.60245320  0.97846361  0.85200975    -0.78900
O429        O  0.60246194  0.02133231  0.64801503    -0.78900
O430        O  0.54762110  0.01408766  0.80943498    -0.79000
O431        O  0.54762032  0.98572043  0.69058557    -0.78900
O432        O  0.61767336  0.09940948  0.69335011    -0.78900
O433        O  0.61765382  0.90038499  0.80667472    -0.78900
C434        C  0.57437830  0.89369370  0.79733462     1.10800
C435        C  0.57439864  0.10610589  0.70268766     1.10700
C436        C  0.55965299  0.98656538  0.84224798     1.10800
C437        C  0.55965954  0.01324345  0.65777613     1.10700
O438        O  0.63253122  0.94323631  0.65050445    -0.78900
O439        O  0.63253261  0.05655580  0.84952181    -0.79000
O440        O  0.70256274  0.94046357  0.76419447    -0.78900
O441        O  0.70257532  0.05931424  0.73583379    -0.78900
O442        O  0.64774389  0.10189515  0.77144799    -0.79000
O443        O  0.64772267  0.89789345  0.72857922    -0.78900
O444        O  0.69470860  0.98325619  0.67035699    -0.78900
O445        O  0.69470670  0.01652685  0.82967752    -0.78900
Co446      Co  0.59630463  0.94255213  0.71296985     1.51500
Co447      Co  0.59631435  0.05724586  0.78705329     1.51700
Co448      Co  0.65387673  0.96285044  0.80735735     1.51600
Co449      Co  0.65388590  0.03693759  0.69267030     1.51500
O450        O  0.62509460  0.99989627  0.75001286    -1.40800
C451        C  0.67580726  0.95257884  0.64381510     1.10700
C452        C  0.67580643  0.04720787  0.85621680     1.10800
C453        C  0.69052455  0.90765369  0.73667179     1.10700
C454        C  0.69054439  0.09212741  0.76335449     1.10700
C455        C  0.51153864  0.97390876  0.96057669     0.03500
C456        C  0.47411570  0.96044538  0.98857486     0.03500
C457        C  0.46064149  0.98845597  0.02598380     0.03500
C458        C  0.48867778  0.02583534  0.03948807     0.03500
C459        C  0.52610274  0.03929815  0.01149223     0.03500
C460        C  0.53957712  0.01128643  0.97408291     0.03500
O461        O  0.42045153  0.26647230  0.05541040    -0.78900
O462        O  0.57976677  0.23322149  0.05544329    -0.78900
O463        O  0.47865488  0.35184805  0.10240498    -0.78900
O464        O  0.52154490  0.14784659  0.10241464    -0.78900
O465        O  0.51428522  0.30927791  0.04757558    -0.79000
O466        O  0.48594084  0.19041665  0.04756767    -0.78900
O467        O  0.59961219  0.19319431  0.11761887    -0.78900
O468        O  0.40058617  0.30649297  0.11758352    -0.78900
C469        C  0.39390525  0.29714851  0.07430576     1.10800
C470        C  0.60630456  0.20253907  0.07434298     1.10700
C471        C  0.48676101  0.34208857  0.05960522     1.10800
C472        C  0.51346270  0.15760823  0.05961089     1.10700
O473        O  0.44344650  0.15033524  0.13246847    -0.78900
O474        O  0.55674466  0.34936627  0.13249681    -0.79000
O475        O  0.44065306  0.26402146  0.20250427    -0.78900
O476        O  0.55951286  0.23567274  0.20252733    -0.78900
O477        O  0.60208956  0.27128994  0.14769564    -0.79000
O478        O  0.39809469  0.22840123  0.14765751    -0.78900
O479        O  0.48345435  0.17019147  0.19465307    -0.78900
O480        O  0.51670835  0.32952044  0.19466523    -0.78900
Co481      Co  0.44276407  0.21279727  0.09624438     1.51500
Co482      Co  0.55744128  0.28689858  0.09626970     1.51700
Co483      Co  0.46304199  0.30718895  0.15382283     1.51600
Co484      Co  0.53714170  0.19250607  0.15383640     1.51500
O485        O  0.50009769  0.24984783  0.12504400    -1.40800
C486        C  0.45277473  0.14365328  0.17574686     1.10700
C487        C  0.54739011  0.35606438  0.17576807     1.10800
C488        C  0.40784616  0.23649769  0.19046147     1.10700
C489        C  0.59232262  0.26319712  0.19049556     1.10700
O490        O  0.15058519  0.13235531  0.44338243    -0.78900
O491        O  0.34961774  0.13236254  0.55667443    -0.78900
O492        O  0.23593164  0.20239828  0.55944582    -0.78900
O493        O  0.26427573  0.20238612  0.44059213    -0.78900
O494        O  0.27154685  0.14756215  0.60202023    -0.79000
O495        O  0.22865145  0.14754524  0.39803007    -0.78900
O496        O  0.32977035  0.19453582  0.51664451    -0.78900
O497        O  0.17044362  0.19453553  0.48339576    -0.78900
C498        C  0.14390054  0.17563112  0.45271851     1.10800
C499        C  0.35631134  0.17563639  0.54732666     1.10700
C500        C  0.26345753  0.19036373  0.59225290     1.10800
C501        C  0.23675036  0.19034791  0.40778514     1.10700
O502        O  0.26671749  0.05529347  0.42037874    -0.78900
O503        O  0.23347310  0.05531095  0.57968795    -0.79000
O504        O  0.14809847  0.10229255  0.52147911    -0.78900
O505        O  0.35209814  0.10227964  0.47858240    -0.78900
O506        O  0.30952867  0.04744625  0.51420697    -0.79000
O507        O  0.19066406  0.04744795  0.48586549    -0.78900
O508        O  0.30674134  0.11746511  0.40051519    -0.78900
O509        O  0.19345368  0.11748857  0.59954242    -0.78900
Co510      Co  0.21304586  0.09612835  0.44269414     1.51500
Co511      Co  0.28715133  0.09613745  0.55736818     1.51700
Co512      Co  0.19276185  0.15371170  0.53707601     1.51600
Co513      Co  0.30744055  0.15369998  0.46297428     1.51500
O514        O  0.25010013  0.12491966  0.50002822    -1.40800
C515        C  0.29739467  0.07418949  0.39383230     1.10700
C516        C  0.20279072  0.07421234  0.60622766     1.10800
C517        C  0.15785402  0.05948922  0.51338581     1.10700
C518        C  0.34233794  0.05947881  0.48668268     1.10700
C519        C  0.76155822  0.78934247  0.27601107     0.03500
C520        C  0.72412107  0.76136064  0.28946885     0.03500
C521        C  0.71062082  0.72397124  0.26144333     0.03500
C522        C  0.73864299  0.71046908  0.22405265     0.03500
C523        C  0.77608096  0.73845095  0.21059544     0.03500
C524        C  0.78958270  0.77583868  0.23862272     0.03500
O525        O  0.61761784  0.59942155  0.30670089    -0.78900
O526        O  0.61761925  0.40038488  0.19339315    -0.78900
O527        O  0.54757219  0.51407798  0.19063124    -0.78900
O528        O  0.54758438  0.48572094  0.30948292    -0.78900
O529        O  0.60240961  0.47846350  0.14805816    -0.79000
O530        O  0.60242661  0.52134514  0.35204361    -0.78900
O531        O  0.55544122  0.42021741  0.23342181    -0.78900
O532        O  0.55543583  0.57957402  0.26668586    -0.78900
C533        C  0.57434295  0.60611533  0.29736267     1.10800
C534        C  0.57434650  0.39368040  0.20273964     1.10700
C535        C  0.55960837  0.48655073  0.15782510     1.10800
C536        C  0.55962376  0.51324890  0.34228850     1.10700
O537        O  0.69467798  0.48328429  0.32968726    -0.78900
O538        O  0.69465830  0.51653715  0.17039313    -0.79000
O539        O  0.64767713  0.60191317  0.22860130    -0.78900
O540        O  0.64769493  0.39790075  0.27148858    -0.78900
O541        O  0.70252505  0.44047762  0.23586821    -0.79000
O542        O  0.70252034  0.55934390  0.26421179    -0.78900
O543        O  0.63251098  0.44325613  0.34955523    -0.78900
O544        O  0.63248231  0.55655783  0.15053658    -0.78900
Co545      Co  0.65384146  0.53695750  0.30738136     1.51500
Co546      Co  0.65383450  0.46285667  0.19270818     1.51700
Co547      Co  0.59625852  0.55724901  0.21300336     1.51600
Co548      Co  0.59627283  0.44255653  0.28709699     1.51500
O549        O  0.62504943  0.49990478  0.25004749    -1.40800
C550        C  0.67578844  0.45260311  0.35623179     1.10700
C551        C  0.67575944  0.54721727  0.14385186     1.10800
C552        C  0.69047986  0.59215614  0.23669345     1.10700
C553        C  0.69049459  0.40766345  0.26338801     1.10700
C554        C  0.71064843  0.27586082  0.23859024     0.03500
C555        C  0.72414291  0.23846522  0.21056957     0.03500
C556        C  0.76156373  0.21046766  0.22404174     0.03500
C557        C  0.78958040  0.22396051  0.26144044     0.03500
C558        C  0.77608636  0.26135661  0.28946077     0.03500
C559        C  0.73866485  0.28935305  0.27598901     0.03500
C560        C  0.72414985  0.73848408  0.78950781     0.03500
C561        C  0.76154223  0.71046017  0.77601326     0.03500
C562        C  0.78953350  0.72392196  0.73858423     0.03500
C563        C  0.77603495  0.76131328  0.71055976     0.03500
C564        C  0.73864144  0.78933623  0.72405301     0.03500
C565        C  0.71065101  0.77587454  0.76148198     0.03500
O566        O  0.19470824  0.98327457  0.82967876    -0.78900
O567        O  0.19471420  0.01655089  0.67035652    -0.78900
O568        O  0.14773902  0.89791034  0.77144627    -0.78900
O569        O  0.14772967  0.10191287  0.72858040    -0.78900
O570        O  0.20257438  0.94048581  0.73583165    -0.79000
O571        O  0.20256763  0.05934128  0.76419759    -0.78900
O572        O  0.13253849  0.05657345  0.65050416    -0.78900
O573        O  0.13253176  0.94324932  0.84952087    -0.78900
C574        C  0.17580717  0.95259155  0.85621462     1.10800
C575        C  0.17581631  0.04723406  0.64381920     1.10700
C576        C  0.19054024  0.90767289  0.76335156     1.10800
C577        C  0.19053126  0.09215153  0.73667443     1.10700
O578        O  0.11765134  0.09941776  0.80667023    -0.78900
O579        O  0.11766543  0.90040175  0.69335081    -0.79000
O580        O  0.04762415  0.98572596  0.80943230    -0.78900
O581        O  0.04762698  0.01408941  0.69058400    -0.78900
O582        O  0.10246573  0.97847829  0.64801117    -0.79000
O583        O  0.10245546  0.02134371  0.85201104    -0.78900
O584        O  0.05547904  0.07956521  0.76664260    -0.78900
O585        O  0.05548870  0.92024819  0.73337355    -0.78900
Co586      Co  0.15387958  0.03695461  0.80735863     1.51500
Co587      Co  0.15388728  0.96286880  0.69266782     1.51700
Co588      Co  0.09631393  0.94256474  0.78705306     1.51600
Co589      Co  0.09631130  0.05725454  0.71296717     1.51500
O590        O  0.12509866  0.99991066  0.75001177    -1.40800
C591        C  0.07437652  0.10610467  0.79732545     1.10700
C592        C  0.07439024  0.89370975  0.70269334     1.10800
C593        C  0.05965538  0.01324690  0.84224570     1.10700
C594        C  0.05966376  0.98656560  0.65777589     1.10700
O595        O  0.76675690  0.44454299  0.57968085    -0.78900
O596        O  0.73346138  0.44454313  0.42035192    -0.78900
O597        O  0.85211471  0.39758519  0.52143636    -0.78900
O598        O  0.64812113  0.39756585  0.47858857    -0.78900
O599        O  0.80953108  0.45241702  0.48582349    -0.79000
O600        O  0.69069638  0.45240120  0.51420585    -0.78900
O601        O  0.69344730  0.38235901  0.40050913    -0.78900
O602        O  0.80678880  0.38236916  0.59951895    -0.78900
C603        C  0.79743991  0.42564028  0.60621844     1.10800
C604        C  0.70277606  0.42563572  0.39382012     1.10700
C605        C  0.84234518  0.44038588  0.51334387     1.10800
C606        C  0.65788577  0.44036755  0.48668321     1.10700
O607        O  0.65061688  0.36748697  0.55668025    -0.78900
O608        O  0.84962290  0.36751039  0.44334101    -0.79000
O609        O  0.76431854  0.29745749  0.55943175    -0.78900
O610        O  0.73594049  0.29745701  0.44058638    -0.78900
O611        O  0.77154577  0.35229819  0.39800907    -0.79000
O612        O  0.72869746  0.35228539  0.60201262    -0.78900
O613        O  0.67046637  0.30531214  0.51665500    -0.78900
O614        O  0.82978350  0.30533196  0.48336562    -0.78900
Co615      Co  0.71308144  0.40371182  0.55736313     1.51500
Co616      Co  0.78715141  0.40372481  0.44266245     1.51700
Co617      Co  0.80747093  0.34615350  0.53704868     1.51600
Co618      Co  0.69277539  0.34614154  0.46297498     1.51500
O619        O  0.75012024  0.37493317  0.50001224    -1.40800
C620        C  0.64392658  0.32421218  0.54733620     1.10700
C621        C  0.85631776  0.32423588  0.45268209     1.10800
C622        C  0.73679713  0.30948566  0.59224551     1.10700
C623        C  0.76345840  0.30949531  0.40777288     1.10700
C624        C  0.96066617  0.48849143  0.52599630     0.03500
C625        C  0.98869112  0.52588305  0.53949173     0.03500
C626        C  0.02611084  0.53935232  0.51149219     0.03500
C627        C  0.03959580  0.51133396  0.47409187     0.03500
C628        C  0.01157360  0.47394039  0.46059837     0.03500
C629        C  0.97415259  0.46047243  0.48859664     0.03500
O630        O  0.84959178  0.63230597  0.05674832    -0.78900
O631        O  0.65058622  0.63233891  0.94339191    -0.78900
O632        O  0.76429146  0.70237282  0.94065255    -0.78900
O633        O  0.73590272  0.70236870  0.05948728    -0.78900
O634        O  0.72866870  0.64754740  0.89806758    -0.79000
O635        O  0.77150457  0.64752698  0.10206645    -0.78900
O636        O  0.67043191  0.69451409  0.98341810    -0.78900
O637        O  0.82976594  0.69448906  0.01672363    -0.78900
C638        C  0.85629980  0.67557824  0.04740517     1.10800
C639        C  0.64389502  0.67561252  0.95273347     1.10700
C640        C  0.73677353  0.69034708  0.90783378     1.10800
C641        C  0.76342640  0.69033003  0.09229570     1.10700
O642        O  0.73342254  0.55528239  0.07972465    -0.78900
O643        O  0.76673103  0.55528743  0.92039492    -0.79000
O644        O  0.85208192  0.60223559  0.97864830    -0.78900
O645        O  0.64808261  0.60226192  0.02148361    -0.78900
O646        O  0.69065789  0.54742460  0.98586814    -0.79000
O647        O  0.80949432  0.54740640  0.01425968    -0.78900
O648        O  0.69340583  0.61746476  0.09956792    -0.78900
O649        O  0.80676131  0.61746412  0.90056415    -0.78900
Co650      Co  0.78711424  0.59609934  0.05741817     1.51500
Co651      Co  0.71305096  0.59611621  0.94271297     1.51700
Co652      Co  0.80744186  0.65367265  0.96303754     1.51600
Co653      Co  0.69273744  0.65368436  0.03710030     1.51500
O654        O  0.75008629  0.62489316  0.00006732    -1.40800
C655        C  0.70273825  0.57418765  0.10625789     1.10700
C656        C  0.79741629  0.57419225  0.89386176     1.10800
C657        C  0.84231094  0.55943538  0.98674217     1.10700
C658        C  0.65784511  0.55945969  0.01338862     1.10700
C659        C  0.48866578  0.52584867  0.96060492     0.03500
C660        C  0.52604982  0.53934543  0.98863912     0.03500
C661        C  0.53953227  0.51132832  0.02604184     0.03500
C662        C  0.51153066  0.47390691  0.03950436     0.03500
C663        C  0.47414659  0.46041106  0.01147086     0.03500
C664        C  0.46066731  0.48842484  0.97406559     0.03500
O665        O  0.82975361  0.19449959  0.98337762    -0.78900
O666        O  0.67043554  0.19447674  0.01668302    -0.78900
O667        O  0.77151762  0.14752793  0.89802480    -0.78900
O668        O  0.72868681  0.14751422  0.10203113    -0.78900
O669        O  0.73589745  0.20235500  0.94060869    -0.79000
O670        O  0.76428834  0.20235432  0.05945019    -0.78900
O671        O  0.65060438  0.13229606  0.05670744    -0.78900
O672        O  0.84960182  0.13232585  0.94334985    -0.78900
C673        C  0.85629050  0.17560109  0.95269354     1.10800
C674        C  0.64390517  0.17557027  0.04736955     1.10700
C675        C  0.76341598  0.19032764  0.90779181     1.10800
C676        C  0.73677132  0.19031705  0.09226449     1.10700
O677        O  0.80678607  0.11745066  0.09952859    -0.78900
O678        O  0.69342659  0.11744432  0.90052526    -0.79000
O679        O  0.80953201  0.04741025  0.98582815    -0.78900
O680        O  0.69070062  0.04739204  0.01422141    -0.78900
O681        O  0.64810990  0.10221987  0.97861140    -0.79000
O682        O  0.85210660  0.10224859  0.02144167    -0.78900
O683        O  0.76676902  0.05526782  0.07968899    -0.78900
O684        O  0.73346080  0.05526931  0.92035611    -0.78900
Co685      Co  0.80745214  0.15367003  0.03706037     1.51500
Co686      Co  0.69274883  0.15365655  0.96299677     1.51700
Co687      Co  0.78713892  0.09610009  0.94267200     1.51600
Co688      Co  0.71307899  0.09608589  0.05738010     1.51500
O689        O  0.75010478  0.12487791  0.00002704    -1.40800
C690        C  0.79745270  0.07417559  0.10622285     1.10700
C691        C  0.70277384  0.07417282  0.89382357     1.10800
C692        C  0.84234276  0.05944637  0.01335046     1.10700
C693        C  0.65788479  0.05941976  0.98670190     1.10700
O694        O  0.36768856  0.55655902  0.65056247    -0.78900
O695        O  0.36768568  0.44319743  0.84955578    -0.78900
O696        O  0.29765355  0.44045369  0.73585797    -0.78900
O697        O  0.29763803  0.55929271  0.76425352    -0.78900
O698        O  0.35248841  0.39787434  0.77147127    -0.79000
O699        O  0.35246663  0.60188147  0.72864457    -0.78900
O700        O  0.30550826  0.48321971  0.82970876    -0.78900
O701        O  0.30551479  0.51652878  0.67039898    -0.78900
C702        C  0.32441409  0.54721598  0.64386831     1.10800
C703        C  0.32440793  0.45253471  0.85624140     1.10700
C704        C  0.30968752  0.40763954  0.76337702     1.10800
C705        C  0.30966677  0.59211099  0.73673789     1.10700
O706        O  0.44471983  0.57954491  0.76671589    -0.78900
O707        O  0.44473951  0.42022534  0.73341033    -0.79000
O708        O  0.39777510  0.47846860  0.64806265    -0.78900
O709        O  0.39775374  0.52129390  0.85206197    -0.78900
O710        O  0.45259392  0.48569005  0.80948353    -0.79000
O711        O  0.45259704  0.51408588  0.69065356    -0.78900
O712        O  0.38254150  0.59938021  0.80674013    -0.78900
O713        O  0.38256581  0.40038293  0.69338058    -0.78900
Co714      Co  0.40390011  0.55723644  0.71303282     1.51500
Co715      Co  0.40390945  0.44252811  0.78709202     1.51700
Co716      Co  0.34634384  0.46284740  0.69270569     1.51600
Co717      Co  0.34632887  0.53690836  0.80741074     1.51500
O718        O  0.37512056  0.49987980  0.75006068    -1.40800
C719        C  0.42581441  0.60607920  0.79739675     1.10700
C720        C  0.42583987  0.39369301  0.70272159     1.10800
C721        C  0.44057364  0.48656586  0.65783760     1.10700
C722        C  0.44055615  0.51321002  0.84229518     1.10700
O723        O  0.80677856  0.88235145  0.40050448    -0.78900
O724        O  0.69343859  0.88234063  0.59951556    -0.78900
O725        O  0.69069861  0.95240239  0.48582377    -0.78900
O726        O  0.80953224  0.95238522  0.51420742    -0.78900
O727        O  0.64811418  0.89757129  0.52143588    -0.79000
O728        O  0.85210672  0.89755072  0.47858678    -0.78900
O729        O  0.73346483  0.94451841  0.57968102    -0.78900
O730        O  0.76676168  0.94453271  0.42035093    -0.78900
C731        C  0.79744424  0.92562651  0.39381415     1.10800
C732        C  0.70277940  0.92561368  0.60621346     1.10700
C733        C  0.65788476  0.94037204  0.51334393     1.10800
C734        C  0.84234334  0.94035199  0.48668459     1.10700
O735        O  0.82976437  0.80529620  0.51664881    -0.78900
O736        O  0.67044166  0.80531816  0.48335856    -0.79000
O737        O  0.72868100  0.85228789  0.39800783    -0.78900
O738        O  0.77153262  0.85226041  0.60200774    -0.78900
O739        O  0.73591021  0.79743597  0.55942252    -0.79000
O740        O  0.76428802  0.79744476  0.44058162    -0.78900
O741        O  0.84961112  0.86746986  0.55667730    -0.78900
O742        O  0.65060234  0.86749995  0.44333894    -0.78900
Co743      Co  0.80745320  0.84612835  0.46297007     1.51500
Co744      Co  0.69275758  0.84613462  0.53704272     1.51700
Co745      Co  0.71307508  0.90371216  0.44266162     1.51600
Co746      Co  0.78714550  0.90369226  0.55736218     1.51500
O747        O  0.75010813  0.87491698  0.50000902    -1.40800
C748        C  0.85630292  0.82419674  0.54733291     1.10700
C749        C  0.64390449  0.82422579  0.45268014     1.10800
C750        C  0.73676465  0.80948477  0.40777304     1.10700
C751        C  0.76342914  0.80946102  0.59223987     1.10700
O752        O  0.05556846  0.57953649  0.23340476    -0.78900
O753        O  0.05555507  0.42024615  0.26668029    -0.78900
O754        O  0.10252993  0.52131111  0.14803268    -0.78900
O755        O  0.10254344  0.47845157  0.35204731    -0.78900
O756        O  0.04769604  0.48570625  0.19061689    -0.79000
O757        O  0.04770979  0.51407134  0.30947275    -0.78900
O758        O  0.11772773  0.40037941  0.30670041    -0.78900
O759        O  0.11773834  0.59938402  0.19337221    -0.78900
C760        C  0.07446342  0.60607350  0.20271912     1.10800
C761        C  0.07444885  0.39370345  0.29735908     1.10700
C762        C  0.05972931  0.51322132  0.15780019     1.10800
C763        C  0.05974281  0.48655316  0.34228773     1.10700
O764        O  0.13262065  0.55654633  0.34954786    -0.78900
O765        O  0.13258869  0.44320930  0.15052781    -0.79000
O766        O  0.20265489  0.55928743  0.23584131    -0.78900
O767        O  0.20264611  0.44044987  0.26422202    -0.78900
O768        O  0.14780154  0.39788265  0.22860930    -0.79000
O769        O  0.14782696  0.60186901  0.27146105    -0.78900
O770        O  0.19479606  0.51651507  0.32971319    -0.78900
O771        O  0.19477479  0.48322470  0.17035935    -0.78900
Co772      Co  0.09639968  0.55722556  0.28708125     1.51500
Co773      Co  0.09638031  0.44254061  0.21299880     1.51700
Co774      Co  0.15395873  0.53691332  0.19268348     1.51600
Co775      Co  0.15396224  0.46283829  0.30738808     1.51500
O776        O  0.12517759  0.49987962  0.25003807    -1.40800
C777        C  0.17589289  0.54719985  0.35624864     1.10700
C778        C  0.17586309  0.45254333  0.14382711     1.10800
C779        C  0.19062641  0.59209733  0.26336744     1.10700
C780        C  0.19060507  0.40764267  0.23669718     1.10700
C781        C  0.47418069  0.53940806  0.48866061     0.03500
C782        C  0.46071874  0.51139860  0.52607523     0.03500
C783        C  0.48873832  0.47399281  0.53954351     0.03500
C784        C  0.52612633  0.46050623  0.51151045     0.03500
C785        C  0.53958734  0.48851792  0.47409644     0.03500
C786        C  0.51156687  0.52592146  0.46062479     0.03500
C787        C  0.98864530  0.47389815  0.96060941     0.03500
C788        C  0.02606843  0.46042496  0.98860329     0.03500
C789        C  0.03956540  0.48844188  0.02599997     0.03500
C790        C  0.01155043  0.52584049  0.03949694     0.03500
C791        C  0.97412446  0.53931202  0.01150566     0.03500
C792        C  0.96062728  0.51129328  0.97410983     0.03500
C793        C  0.01345510  0.53915958  0.08760773    -0.12000
C794        C  0.02625336  0.53228992  0.12677148    -0.13600
C795        C  0.48685881  0.46065187  0.58764905    -0.12000
C796        C  0.47405945  0.46750555  0.62681488    -0.13600
C797        C  0.47402767  0.53229027  0.87332215    -0.12000
C798        C  0.48680203  0.53916914  0.91249255    -0.13600
C799        C  0.91250963  0.51317009  0.96080812    -0.12000
C800        C  0.87334195  0.52595620  0.96768073    -0.13600
C801        C  0.58764785  0.51320538  0.03934901    -0.12000
C802        C  0.62681489  0.52598641  0.03246266    -0.13600
C803        C  0.02626737  0.46749193  0.37332199    -0.12000
C804        C  0.01346995  0.46062292  0.41248619    -0.13600
C805        C  0.62685874  0.47384421  0.46761416    -0.12000
C806        C  0.58769126  0.48663525  0.46075419    -0.13600
C807        C  0.91254652  0.48663294  0.53929232    -0.12000
C808        C  0.87337534  0.47386194  0.53241186    -0.13600
C809        C  0.78934329  0.76318948  0.66244365    -0.12000
C810        C  0.78248004  0.77597933  0.62327510    -0.13600
C811        C  0.71085064  0.73661390  0.83762728    -0.12000
C812        C  0.71772196  0.72382770  0.87679628    -0.13600
C813        C  0.71769421  0.22379057  0.12329243    -0.12000
C814        C  0.71081870  0.23658017  0.16245878    -0.13600
C815        C  0.78253294  0.27602355  0.37674102    -0.12000
C816        C  0.78940788  0.26323921  0.33757297    -0.13600
C817        C  0.52613874  0.46747337  0.12679550    -0.12000
C818        C  0.51338182  0.46059592  0.08761975    -0.13600
C819        C  0.52615754  0.53232318  0.37332633    -0.12000
C820        C  0.51340372  0.53921320  0.41250209    -0.13600
C821        C  0.72397088  0.37663009  0.28244731    -0.12000
C822        C  0.73676517  0.33746360  0.28931020    -0.13600
C823        C  0.71767827  0.77601479  0.37674813    -0.12000
C824        C  0.71079650  0.76323762  0.33757925    -0.13600
C825        C  0.78251809  0.72380161  0.12331593    -0.12000
C826        C  0.78940375  0.73657787  0.16248444    -0.13600
C827        C  0.73674118  0.66235500  0.21074318    -0.12000
C828        C  0.72394869  0.62319027  0.21762122    -0.13600
C829        C  0.46084029  0.41229471  0.01334555    -0.12000
C830        C  0.46770582  0.37312504  0.02612885    -0.13600
C831        C  0.62335375  0.28226617  0.22396866    -0.12000
C832        C  0.66252662  0.28914885  0.23673212    -0.13600
C833        C  0.58769084  0.01315262  0.96076604    -0.12000
C834        C  0.62685927  0.02593810  0.96763518    -0.13600
C835        C  0.53254817  0.12657896  0.02614484    -0.12000
C836        C  0.53942768  0.08740856  0.01337115    -0.13600
C837        C  0.73676599  0.83744719  0.71072847    -0.12000
C838        C  0.72399305  0.87661940  0.71759982    -0.13600
C839        C  0.52617965  0.96750414  0.87328428    -0.12000
C840        C  0.51340675  0.96062170  0.91245483    -0.13600
C841        C  0.46085661  0.58751796  0.48677986    -0.12000
C842        C  0.46771437  0.62668525  0.47398682    -0.13600
C843        C  0.62333326  0.71753606  0.27609776    -0.12000
C844        C  0.66250296  0.71067082  0.26331511    -0.13600
C845        C  0.58769234  0.98664043  0.53928462    -0.12000
C846        C  0.62685910  0.97385174  0.53241241    -0.13600
C847        C  0.37337141  0.02600487  0.46761960    -0.12000
C848        C  0.41254216  0.01322928  0.46074771    -0.13600
C849        C  0.51342311  0.03921385  0.58757389    -0.12000
C850        C  0.52619105  0.03232318  0.62674474    -0.13600
C851        C  0.53252787  0.87320450  0.47393748    -0.12000
C852        C  0.53940873  0.91237509  0.48671093    -0.13600
C853        C  0.47399053  0.03227283  0.12676633    -0.12000
C854        C  0.48678754  0.03914381  0.08760248    -0.13600
C855        C  0.48677222  0.96061695  0.41246898    -0.12000
C856        C  0.47397165  0.96747592  0.37330462    -0.13600
C857        C  0.53253316  0.37320955  0.52612208    -0.12000
C858        C  0.53941867  0.41238439  0.51336305    -0.13600
C859        C  0.46082882  0.08749866  0.51331179    -0.12000
C860        C  0.46770245  0.12666980  0.52608585    -0.13600
C861        C  0.28253203  0.22383662  0.62327998    -0.12000
C862        C  0.28939829  0.23660633  0.66245304    -0.13600
C863        C  0.23677621  0.16235100  0.71071226    -0.12000
C864        C  0.22400200  0.12318150  0.71759798    -0.13600
C865        C  0.26342759  0.33744362  0.78932197    -0.12000
C866        C  0.27621287  0.37661076  0.78244757    -0.13600
C867        C  0.33767673  0.28916758  0.73671952    -0.12000
C868        C  0.37684434  0.28230415  0.72392916    -0.13600
C869        C  0.12685176  0.47378069  0.03242702    -0.12000
C870        C  0.08768354  0.48656388  0.03930024    -0.13600
C871        C  0.37339368  0.47373773  0.96760447    -0.12000
C872        C  0.41255953  0.48652932  0.96073621    -0.13600
C873        C  0.21767714  0.27594789  0.87674570    -0.12000
C874        C  0.21080347  0.26318613  0.83757058    -0.13600
C875        C  0.23683123  0.33743567  0.21072813    -0.12000
C876        C  0.22407212  0.37661019  0.21761615    -0.13600
C877        C  0.21768311  0.22381778  0.37674864    -0.12000
C878        C  0.21081019  0.23658866  0.33757641    -0.13600
C879        C  0.37680831  0.21742555  0.22392769    -0.12000
C880        C  0.33763782  0.21055168  0.23670301    -0.13600
C881        C  0.26337128  0.16230446  0.28931132    -0.12000
C882        C  0.27615049  0.12313462  0.28244193    -0.13600
C883        C  0.28937174  0.26313953  0.16243848    -0.12000
C884        C  0.28250370  0.27591595  0.12326757    -0.13600
C885        C  0.96082811  0.41236166  0.48671725    -0.12000
C886        C  0.96770252  0.37319259  0.47393573    -0.13600
C887        C  0.83769865  0.21066178  0.26330911    -0.12000
C888        C  0.87686814  0.21753825  0.27608645    -0.13600
C889        C  0.12338327  0.28232859  0.27611703    -0.12000
C890        C  0.16254896  0.28919351  0.26332343    -0.13600
C891        C  0.97401809  0.53232333  0.62677414    -0.12000
C892        C  0.98680475  0.53919298  0.58760640    -0.13600
C893        C  0.97399860  0.46750178  0.87331835    -0.12000
C894        C  0.98676958  0.46061103  0.91248808    -0.13600
C895        C  0.77618325  0.62317594  0.78246196    -0.12000
C896        C  0.76341270  0.66234839  0.78933488    -0.13600
C897        C  0.73680848  0.16232679  0.78928597    -0.12000
C898        C  0.72402155  0.12315818  0.78241981    -0.13600
C899        C  0.78935809  0.23659354  0.83759381    -0.12000
C900        C  0.78247616  0.22380715  0.87676003    -0.13600
C901        C  0.66256528  0.21060025  0.73667750    -0.12000
C902        C  0.62339438  0.21747985  0.72390703    -0.13600
C903        C  0.71085148  0.26321976  0.66243941    -0.12000
C904        C  0.71773261  0.27600650  0.62327348    -0.13600
C905        C  0.76339983  0.33748645  0.71075105    -0.12000
C906        C  0.77618161  0.37665599  0.71762250    -0.13600
C907        C  0.53248518  0.62663398  0.97398662    -0.12000
C908        C  0.53935185  0.58746358  0.98676945    -0.13600
C909        C  0.62336259  0.78228617  0.77612858    -0.12000
C910        C  0.66253221  0.78916842  0.76335700    -0.13600
C911        C  0.46766881  0.87316477  0.97392748    -0.12000
C912        C  0.46079122  0.91233562  0.98669835    -0.13600
C913        C  0.23679460  0.83747034  0.78929966    -0.12000
C914        C  0.22401383  0.87663871  0.78241844    -0.20800
C915        C  0.27618644  0.62313862  0.71767277    -0.12000
C916        C  0.26339337  0.66230372  0.71079534    -0.13600
C917        C  0.33766009  0.71060020  0.76334953    -0.12000
C918        C  0.37682992  0.71746734  0.77613166    -0.13600
C919        C  0.41260491  0.51326052  0.53939078    -0.12000
C920        C  0.37343096  0.52602341  0.53251058    -0.13600
C921        C  0.08771045  0.51320111  0.46078319    -0.12000
C922        C  0.12688246  0.52597397  0.46765017    -0.13600
C923        C  0.21078890  0.73655709  0.66250909    -0.12000
C924        C  0.21767514  0.72379489  0.62333683    -0.13600
C925        C  0.33763864  0.78922153  0.26337122    -0.12000
C926        C  0.37680501  0.78234823  0.27615871    -0.13600
C927        C  0.27613998  0.87662983  0.21761968    -0.12000
C928        C  0.26337260  0.83745542  0.21074936    -0.13600
C929        C  0.23686213  0.66230184  0.28930587    -0.12000
C930        C  0.22410262  0.62312525  0.28243520    -0.13600
C931        C  0.28938134  0.73659020  0.33760762    -0.12000
C932        C  0.28252096  0.72380832  0.37677839    -0.13600
C933        C  0.96769574  0.62659715  0.02615158    -0.12000
C934        C  0.96081153  0.58742649  0.01337993    -0.13600
C935        C  0.83770551  0.78912524  0.23676344    -0.12000
C936        C  0.87687719  0.78225029  0.22399067    -0.13600
C937        C  0.12340939  0.71744512  0.22393510    -0.12000
C938        C  0.16257845  0.71055663  0.23670868    -0.13600
C939        C  0.28940380  0.76322554  0.83758814    -0.12000
C940        C  0.28252490  0.77600065  0.87675696    -0.13600
C941        C  0.21769918  0.77596508  0.12328782    -0.12000
C942        C  0.21083834  0.76317339  0.16245543    -0.13600
C943        C  0.37335627  0.97381173  0.03243288    -0.12000
C944        C  0.41252733  0.98658954  0.03929953    -0.13600
C945        C  0.12335696  0.78231914  0.72395094    -0.12000
C946        C  0.16252367  0.78918031  0.73674435    -0.13600
C947        C  0.03253349  0.62663778  0.52613100    -0.12000
C948        C  0.03942183  0.58746745  0.51336053    -0.13600
C949        C  0.87682026  0.71751155  0.72392750    -0.12000
C950        C  0.83765209  0.71062631  0.73670467    -0.13600
C951        C  0.87337353  0.97382635  0.46761584    -0.12000
C952        C  0.91254256  0.98660358  0.46073768    -0.13600
C953        C  0.08764684  0.01324520  0.53932705    -0.12000
C954        C  0.12681711  0.02602200  0.53245506    -0.13600
C955        C  0.01340697  0.96061432  0.58758235    -0.12000
C956        C  0.02619069  0.96748639  0.62675029    -0.13600
C957        C  0.03249409  0.12666730  0.47395059    -0.12000
C958        C  0.03936287  0.08749936  0.48673808    -0.13600
C959        C  0.96771274  0.87316649  0.52609063    -0.12000
C960        C  0.96083861  0.91233652  0.51331030    -0.13600
C961        C  0.76345213  0.83745840  0.28931344    -0.12000
C962        C  0.77623677  0.87662529  0.28243537    -0.13600
C963        C  0.77623088  0.12318271  0.21760371    -0.12000
C964        C  0.76345106  0.16235274  0.21073250    -0.13600
C965        C  0.98680018  0.03921139  0.41246900    -0.12000
C966        C  0.97403551  0.03233542  0.37329514    -0.13600
C967        C  0.16251428  0.21063689  0.76329501    -0.12000
C968        C  0.12334708  0.21750354  0.77608540    -0.13600
C969        C  0.03251228  0.37314451  0.97393978    -0.12000
C970        C  0.03938742  0.41231291  0.98672115    -0.13600
C971        C  0.87682073  0.28232845  0.77611658    -0.12000
C972        C  0.83764882  0.28920768  0.76334933    -0.13600
C973        C  0.87337045  0.02597324  0.03242812    -0.12000
C974        C  0.91253821  0.01319299  0.03931049    -0.13600
C975        C  0.02617897  0.03230764  0.87327801    -0.12000
C976        C  0.01339294  0.03916650  0.91244760    -0.13600
C977        C  0.03936397  0.91230147  0.01332284    -0.12000
C978        C  0.03249715  0.87313507  0.02611759    -0.13600
C979        C  0.08764017  0.98656069  0.96072061    -0.12000
C980        C  0.12681311  0.97379614  0.96760125    -0.13600
C981        C  0.98681379  0.96060874  0.08758752    -0.12000
C982        C  0.97405504  0.96748617  0.12676292    -0.13600
C983        C  0.96081398  0.08744440  0.98670500    -0.12000
C984        C  0.96768453  0.12661313  0.97392050    -0.13600
loop_ 
_geom_bond_atom_site_label_1 
_geom_bond_atom_site_label_2 
_geom_bond_distance 
_geom_bond_site_symmetry_2 
_ccdc_geom_bond_type 
C1            C2   1.385   1_554  A
C1            C6   1.385   1_545  A
C1          C974   1.423       .  S
C2            C3   1.385   1_655  A
C2          C983   1.423       .  S
C3            C4   1.385   1_545  A
C3          C976   1.423       .  S
C4            C5   1.385   1_556  A
C4          C979   1.423       .  S
C5            C6   1.385   1_455  A
C5          C977   1.423       .  S
C6          C981   1.423       .  S
O7           C15   1.275       .  A
O7          Co27   2.057       .  S
O8           C16   1.275       .  A
O8          Co28   2.057       .  S
O9           C17   1.267       .  A
O9          Co29   1.960       .  S
O10          C18   1.267       .  A
O10         Co30   1.960       .  S
O11          C17   1.271       .  A
O11         Co28   1.990       .  S
O12          C18   1.272       .  A
O12         Co27   1.990       .  S
O13          C16   1.275       .  A
O13         Co30   2.023   1_655  S
O14          C15   1.275       .  A
O14         Co29   2.023   1_455  S
C15         C591   1.525       .  S
C16         C242   1.526       .  S
C17         C971   1.409       .  S
C18         C968   1.409       .  S
O19          C32   1.275       .  A
O19         Co27   2.023       .  S
O20          C33   1.275       .  A
O20         Co28   2.023       .  S
O21          C34   1.272       .  A
O21         Co29   1.990       .  S
O22          C35   1.271       .  A
O22         Co30   1.990       .  S
O23          C35   1.267   1_655  A
O23         Co28   1.960       .  S
O24          C34   1.267   1_455  A
O24         Co27   1.960       .  S
O25          C32   1.275       .  A
O25         Co30   2.057       .  S
O26          C33   1.275       .  A
O26         Co29   2.057       .  S
Co27         O31   2.110       .  S
Co28         O31   2.110   1_655  S
Co29         O31   2.110   1_655  S
Co30         O31   2.110       .  S
C32         C306   1.526       .  S
C33         C673   1.525       .  S
C34         C984   1.409       .  S
C35         C969   1.409       .  S
O36          C44   1.275       .  A
O36         Co56   2.057       .  S
O37          C45   1.275       .  A
O37         Co57   2.057       .  S
O38          C46   1.267       .  A
O38         Co58   1.960       .  S
O39          C47   1.267       .  A
O39         Co59   1.960       .  S
O40          C46   1.271       .  A
O40         Co57   1.990       .  S
O41          C47   1.271       .  A
O41         Co56   1.990       .  S
O42          C45   1.275       .  A
O42         Co59   2.023   1_565  S
O43          C44   1.275       .  A
O43         Co58   2.023   1_545  S
C44         C690   1.526       .  S
C45         C731   1.526       .  S
C46         C962   1.409       .  S
C47         C963   1.409       .  S
O48          C61   1.275       .  A
O48         Co56   2.023       .  S
O49          C62   1.275       .  A
O49         Co57   2.023       .  S
O50          C63   1.271       .  A
O50         Co58   1.990       .  S
O51          C64   1.271       .  A
O51         Co59   1.990       .  S
O52          C64   1.267   1_565  A
O52         Co57   1.960       .  S
O53          C63   1.267   1_545  A
O53         Co56   1.960       .  S
O54          C61   1.275       .  A
O54         Co59   2.057       .  S
O55          C62   1.275       .  A
O55         Co58   2.057       .  S
Co56         O60   2.110   1_545  S
Co57         O60   2.110       .  S
Co58         O60   2.110       .  S
Co59         O60   2.110   1_545  S
C61         C271   1.526       .  S
C62         C137   1.526       .  S
C63         C982   1.409       .  S
C64         C966   1.409       .  S
C65          C66   1.385   1_565  A
C65          C70   1.385       .  A
C65         C952   1.423       .  S
C66          C67   1.385   1_655  A
C66         C965   1.423       .  S
C67          C68   1.385       .  A
C67         C958   1.423       .  S
C68          C69   1.385   1_545  A
C68         C953   1.423       .  S
C69          C70   1.385   1_455  A
C69         C955   1.423       .  S
C70         C960   1.423       .  S
O71          C79   1.275       .  A
O71         Co91   2.057       .  S
O72          C80   1.275       .  A
O72         Co92   2.057       .  S
O73          C81   1.267       .  A
O73         Co93   1.960       .  S
O74          C82   1.267       .  A
O74         Co94   1.960       .  S
O75          C81   1.271       .  A
O75         Co92   1.990       .  S
O76          C82   1.271       .  A
O76         Co91   1.990       .  S
O77          C80   1.275       .  A
O77         Co94   2.023   1_655  S
O78          C79   1.275       .  A
O78         Co93   2.023   1_455  S
C79         C592   1.525       .  S
C80         C243   1.526       .  S
C81         C949   1.409       .  S
C82         C945   1.409       .  S
O83          C96   1.275       .  A
O83         Co91   2.023       .  S
O84          C97   1.275       .  A
O84         Co92   2.023       .  S
O85          C98   1.272       .  A
O85         Co93   1.990       .  S
O86          C99   1.271       .  A
O86         Co94   1.990       .  S
O87          C99   1.267   1_655  A
O87         Co92   1.960       .  S
O88          C98   1.267   1_455  A
O88         Co91   1.960       .  S
O89          C96   1.275       .  A
O89         Co94   2.057       .  S
O90          C97   1.275       .  A
O90         Co93   2.057       .  S
Co91         O95   2.110       .  S
Co92         O95   2.110   1_655  S
Co93         O95   2.110   1_655  S
Co94         O95   2.110       .  S
C96         C172   1.526       .  S
C97         C748   1.526       .  S
C98         C959   1.409       .  S
C99         C947   1.409       .  S
O100        C108   1.275       .  A
O100       Co120   2.057       .  S
O101        C109   1.275       .  A
O101       Co121   2.057       .  S
O102        C110   1.267       .  A
O102       Co122   1.960       .  S
O103        C111   1.267       .  A
O103       Co123   1.960       .  S
O104        C110   1.271       .  A
O104       Co121   1.990       .  S
O105        C111   1.272       .  A
O105       Co120   1.990       .  S
O106        C109   1.275       .  A
O106       Co123   2.023   1_556  S
O107        C108   1.275       .  A
O107       Co122   2.023   1_554  S
C108        C154   1.525       .  S
C109        C207   1.526       .  S
C110        C940   1.409       .  S
C111        C941   1.409       .  S
O112        C125   1.275       .  A
O112       Co120   2.023       .  S
O113        C126   1.275       .  A
O113       Co121   2.023       .  S
O114        C127   1.271       .  A
O114       Co122   1.990       .  S
O115        C128   1.271       .  A
O115       Co123   1.990       .  S
O116        C128   1.267   1_556  A
O116       Co121   1.960       .  S
O117        C127   1.267   1_554  A
O117       Co120   1.960       .  S
O118        C125   1.275       .  A
O118       Co123   2.057       .  S
O119        C126   1.275       .  A
O119       Co122   2.057       .  S
Co120       O124   2.110       .  S
Co121       O124   2.110   1_556  S
Co122       O124   2.110   1_556  S
Co123       O124   2.110       .  S
C125        C370   1.525       .  S
C126        C574   1.526       .  S
C127        C980   1.409       .  S
C128        C943   1.409       .  S
O129        C137   1.275       .  A
O129       Co149   2.023   1_655  S
O130        C138   1.275       .  A
O130       Co150   2.023   1_455  S
O131        C139   1.271       .  A
O131       Co151   1.990       .  S
O132        C140   1.271       .  A
O132       Co152   1.990       .  S
O133        C139   1.267       .  A
O133       Co150   1.960       .  S
O134        C140   1.267       .  A
O134       Co149   1.960       .  S
O135        C138   1.275       .  A
O135       Co152   2.057       .  S
O136        C137   1.275       .  A
O136       Co151   2.057       .  S
C138        C760   1.526       .  S
C139        C936   1.409       .  S
C140        C937   1.409       .  S
O141        C154   1.275       .  A
O141       Co149   2.057       .  S
O142        C155   1.275       .  A
O142       Co150   2.057       .  S
O143        C156   1.267   1_655  A
O143       Co151   1.960       .  S
O144        C157   1.267   1_455  A
O144       Co152   1.960       .  S
O145        C157   1.271       .  A
O145       Co150   1.990       .  S
O146        C156   1.271       .  A
O146       Co149   1.990       .  S
O147        C154   1.275       .  A
O147       Co152   2.023       .  S
O148        C155   1.275       .  A
O148       Co151   2.023       .  S
Co149       O153   2.110       .  S
Co150       O153   2.110   1_655  S
Co151       O153   2.110   1_655  S
Co152       O153   2.110       .  S
C155        C638   1.526       .  S
C156        C978   1.409       .  S
C157        C933   1.409       .  S
C158        C159   1.385       .  A
C158        C163   1.385       .  A
C158        C928   1.423       .  S
C159        C160   1.385       .  A
C159        C942   1.423       .  S
C160        C161   1.385       .  A
C160        C938   1.423       .  S
C161        C162   1.385       .  A
C161        C929   1.423       .  S
C162        C163   1.385       .  A
C162        C931   1.423       .  S
C163        C925   1.423       .  S
O164        C172   1.275       .  A
O164       Co184   2.023       .  S
O165        C173   1.275       .  A
O165       Co185   2.023       .  S
O166        C174   1.271       .  A
O166       Co186   1.990       .  S
O167        C175   1.271       .  A
O167       Co187   1.990       .  S
O168        C174   1.267       .  A
O168       Co185   1.960       .  S
O169        C175   1.267       .  A
O169       Co184   1.960       .  S
O170        C173   1.275       .  A
O170       Co187   2.057       .  S
O171        C172   1.275       .  A
O171       Co186   2.057       .  S
C173        C405   1.525       .  S
C174        C924   1.409       .  S
C175        C932   1.409       .  S
O176        C189   1.275       .  A
O176       Co184   2.057       .  S
O177        C190   1.275       .  A
O177       Co185   2.057       .  S
O178        C191   1.267       .  A
O178       Co186   1.960       .  S
O179        C192   1.267       .  A
O179       Co187   1.960       .  S
O180        C192   1.271       .  A
O180       Co185   1.990       .  S
O181        C191   1.271       .  A
O181       Co184   1.990       .  S
O182        C189   1.275       .  A
O182       Co187   2.023       .  S
O183        C190   1.275       .  A
O183       Co186   2.023       .  S
Co184       O188   2.110       .  S
Co185       O188   2.110       .  S
Co186       O188   2.110       .  S
Co187       O188   2.110       .  S
C189        C777   1.526       .  S
C190        C702   1.525       .  S
C191        C922   1.409       .  S
C192        C920   1.409       .  S
C193        C194   1.385       .  A
C193        C198   1.385       .  A
C193        C916   1.423       .  S
C194        C195   1.385       .  A
C194        C923   1.423       .  S
C195        C196   1.385       .  A
C195        C946   1.423       .  S
C196        C197   1.385       .  A
C196        C913   1.423       .  S
C197        C198   1.385       .  A
C197        C939   1.423       .  S
C198        C917   1.423       .  S
O199        C207   1.275       .  A
O199       Co219   2.057       .  S
O200        C208   1.275       .  A
O200       Co220   2.057       .  S
O201        C209   1.267       .  A
O201       Co221   1.960       .  S
O202        C210   1.267       .  A
O202       Co222   1.960       .  S
O203        C209   1.272       .  A
O203       Co220   1.990       .  S
O204        C210   1.271       .  A
O204       Co219   1.990       .  S
O205        C208   1.275       .  A
O205       Co222   2.023       .  S
O206        C207   1.275       .  A
O206       Co221   2.023       .  S
C208        C639   1.525       .  S
C209        C907   1.409       .  S
C210        C911   1.409       .  S
O211        C224   1.275       .  A
O211       Co219   2.023       .  S
O212        C225   1.275       .  A
O212       Co220   2.023       .  S
O213        C226   1.271       .  A
O213       Co221   1.990       .  S
O214        C227   1.271       .  A
O214       Co222   1.990       .  S
O215        C227   1.267       .  A
O215       Co220   1.960       .  S
O216        C226   1.267       .  A
O216       Co219   1.960       .  S
O217        C224   1.275       .  A
O217       Co222   2.057       .  S
O218        C225   1.275       .  A
O218       Co221   2.057       .  S
Co219       O223   2.110       .  S
Co220       O223   2.110       .  S
Co221       O223   2.110       .  S
Co222       O223   2.110       .  S
C224        C434   1.526       .  S
C225        C719   1.525       .  S
C226        C918   1.409       .  S
C227        C909   1.409       .  S
C228        C229   1.385       .  A
C228        C233   1.385       .  A
C228        C899   1.423       .  S
C229        C230   1.385       .  A
C229        C972   1.423       .  S
C230        C231   1.385       .  A
C230        C905   1.423       .  S
C231        C232   1.385       .  A
C231        C903   1.423       .  S
C232        C233   1.385       .  A
C232        C901   1.423       .  S
C233        C897   1.423       .  S
O234        C242   1.275       .  A
O234       Co254   2.057       .  S
O235        C243   1.275       .  A
O235       Co255   2.057       .  S
O236        C244   1.267       .  A
O236       Co256   1.960       .  S
O237        C245   1.267       .  A
O237       Co257   1.960       .  S
O238        C244   1.272       .  A
O238       Co255   1.990       .  S
O239        C245   1.271       .  A
O239       Co254   1.990       .  S
O240        C243   1.275       .  A
O240       Co257   2.023       .  S
O241        C242   1.275       .  A
O241       Co256   2.023       .  S
C244        C891   1.409       .  S
C245        C893   1.409       .  S
O246        C259   1.275       .  A
O246       Co254   2.023       .  S
O247        C260   1.275       .  A
O247       Co255   2.023       .  S
O248        C261   1.271       .  A
O248       Co256   1.990       .  S
O249        C262   1.271       .  A
O249       Co257   1.990       .  S
O250        C262   1.267       .  A
O250       Co255   1.960       .  S
O251        C261   1.267       .  A
O251       Co254   1.960       .  S
O252        C259   1.275       .  A
O252       Co257   2.057       .  S
O253        C260   1.275       .  A
O253       Co256   2.057       .  S
Co254       O258   2.110       .  S
Co255       O258   2.110       .  S
Co256       O258   2.110       .  S
Co257       O258   2.110       .  S
C259        C656   1.526       .  S
C260        C603   1.526       .  S
C261        C906   1.409       .  S
C262        C895   1.409       .  S
O263        C271   1.275       .  A
O263       Co283   2.023   1_655  S
O264        C272   1.275       .  A
O264       Co284   2.023   1_455  S
O265        C273   1.271       .  A
O265       Co285   1.990       .  S
O266        C274   1.272       .  A
O266       Co286   1.990       .  S
O267        C273   1.267       .  A
O267       Co284   1.960       .  S
O268        C274   1.267       .  A
O268       Co283   1.960       .  S
O269        C272   1.275       .  A
O269       Co286   2.057       .  S
O270        C271   1.275       .  A
O270       Co285   2.057       .  S
C272        C761   1.525       .  S
C273        C888   1.409       .  S
C274        C889   1.409       .  S
O275        C288   1.275       .  A
O275       Co283   2.057       .  S
O276        C289   1.275       .  A
O276       Co284   2.057       .  S
O277        C290   1.267   1_655  A
O277       Co285   1.960       .  S
O278        C291   1.267   1_455  A
O278       Co286   1.960       .  S
O279        C291   1.271       .  A
O279       Co284   1.990       .  S
O280        C290   1.271       .  A
O280       Co283   1.990       .  S
O281        C288   1.275       .  A
O281       Co286   2.023       .  S
O282        C289   1.275       .  A
O282       Co285   2.023       .  S
Co283       O287   2.110       .  S
Co284       O287   2.110   1_655  S
Co285       O287   2.110   1_655  S
Co286       O287   2.110       .  S
C288        C498   1.525       .  S
C289        C621   1.525       .  S
C290        C957   1.409       .  S
C291        C886   1.409       .  S
C292        C293   1.385       .  A
C292        C297   1.385       .  A
C292        C875   1.423       .  S
C293        C294   1.385       .  A
C293        C890   1.423       .  S
C294        C295   1.385       .  A
C294        C878   1.423       .  S
C295        C296   1.385       .  A
C295        C881   1.423       .  S
C296        C297   1.385       .  A
C296        C880   1.423       .  S
C297        C883   1.423       .  S
O298        C306   1.275       .  A
O298       Co318   2.023   1_556  S
O299        C307   1.275       .  A
O299       Co319   2.023   1_554  S
O300        C308   1.271       .  A
O300       Co320   1.990       .  S
O301        C309   1.271       .  A
O301       Co321   1.990       .  S
O302        C308   1.267       .  A
O302       Co319   1.960       .  S
O303        C309   1.267       .  A
O303       Co318   1.960       .  S
O304        C307   1.275       .  A
O304       Co321   2.057       .  S
O305        C306   1.275       .  A
O305       Co320   2.057       .  S
C307        C469   1.525       .  S
C308        C873   1.409       .  S
C309        C884   1.409       .  S
O310        C323   1.275       .  A
O310       Co318   2.057       .  S
O311        C324   1.275       .  A
O311       Co319   2.057       .  S
O312        C325   1.267   1_556  A
O312       Co320   1.960       .  S
O313        C326   1.267   1_554  A
O313       Co321   1.960       .  S
O314        C326   1.271       .  A
O314       Co319   1.990       .  S
O315        C325   1.271       .  A
O315       Co318   1.990       .  S
O316        C323   1.275       .  A
O316       Co321   2.023       .  S
O317        C324   1.275       .  A
O317       Co320   2.023       .  S
Co318       O322   2.110       .  S
Co319       O322   2.110   1_556  S
Co320       O322   2.110   1_556  S
Co321       O322   2.110       .  S
C323        C778   1.526       .  S
C324        C703   1.525       .  S
C325        C869   1.409       .  S
C326        C871   1.409       .  S
C327        C328   1.385       .  A
C327        C332   1.385       .  A
C327        C862   1.423       .  S
C328        C329   1.385       .  A
C328        C863   1.423       .  S
C329        C330   1.385       .  A
C329        C967   1.423       .  S
C330        C331   1.385       .  A
C330        C874   1.423       .  S
C331        C332   1.385       .  A
C331        C865   1.423       .  S
C332        C867   1.423       .  S
O333        C341   1.275       .  A
O333       Co353   2.057       .  S
O334        C342   1.275       .  A
O334       Co354   2.057       .  S
O335        C343   1.267       .  A
O335       Co355   1.960       .  S
O336        C344   1.267       .  A
O336       Co356   1.960       .  S
O337        C343   1.271       .  A
O337       Co354   1.990       .  S
O338        C344   1.271       .  A
O338       Co353   1.990       .  S
O339        C342   1.275       .  A
O339       Co356   2.023       .  S
O340        C341   1.275       .  A
O340       Co355   2.023       .  S
C341        C620   1.526       .  S
C342        C499   1.526       .  S
C343        C860   1.409       .  S
C344        C857   1.409       .  S
O345        C358   1.275       .  A
O345       Co353   2.023       .  S
O346        C359   1.275       .  A
O346       Co354   2.023       .  S
O347        C360   1.271       .  A
O347       Co355   1.990       .  S
O348        C361   1.271       .  A
O348       Co356   1.990       .  S
O349        C361   1.267       .  A
O349       Co354   1.960       .  S
O350        C360   1.267       .  A
O350       Co353   1.960       .  S
O351        C358   1.275       .  A
O351       Co356   2.057       .  S
O352        C359   1.275       .  A
O352       Co355   2.057       .  S
Co353       O357   2.110       .  S
Co354       O357   2.110       .  S
Co355       O357   2.110       .  S
Co356       O357   2.110       .  S
C358        C720   1.525       .  S
C359        C435   1.526       .  S
C360        C902   1.409       .  S
C361        C868   1.409       .  S
O362        C370   1.275       .  A
O362       Co382   2.023   1_565  S
O363        C371   1.275       .  A
O363       Co383   2.023   1_545  S
O364        C372   1.271       .  A
O364       Co384   1.990       .  S
O365        C373   1.271       .  A
O365       Co385   1.990       .  S
O366        C372   1.267       .  A
O366       Co383   1.960       .  S
O367        C373   1.267       .  A
O367       Co382   1.960       .  S
O368        C371   1.275       .  A
O368       Co385   2.057       .  S
O369        C370   1.275       .  A
O369       Co384   2.057       .  S
C371        C515   1.525       .  S
C372        C927   1.409       .  S
C373        C882   1.409       .  S
O374        C387   1.275       .  A
O374       Co382   2.057       .  S
O375        C388   1.275       .  A
O375       Co383   2.057       .  S
O376        C389   1.267   1_565  A
O376       Co384   1.960       .  S
O377        C390   1.267   1_545  A
O377       Co385   1.960       .  S
O378        C390   1.271       .  A
O378       Co383   1.990       .  S
O379        C389   1.271       .  A
O379       Co382   1.990       .  S
O380        C387   1.275       .  A
O380       Co385   2.023       .  S
O381        C388   1.275       .  A
O381       Co384   2.023       .  S
Co382       O386   2.110   1_545  S
Co383       O386   2.110       .  S
Co384       O386   2.110       .  S
Co385       O386   2.110   1_545  S
C387        C486   1.525       .  S
C388        C422   1.525       .  S
C389        C853   1.409       .  S
C390        C856   1.409       .  S
C391        C392   1.385       .  A
C391        C396   1.385       .  A
C391        C859   1.423       .  S
C392        C393   1.385   1_545  A
C392        C848   1.423       .  S
C393        C394   1.385       .  A
C393        C855   1.423       .  S
C394        C395   1.385       .  A
C394        C852   1.423       .  S
C395        C396   1.385   1_565  A
C395        C845   1.423       .  S
C396        C849   1.423       .  S
O397        C405   1.275       .  A
O397       Co417   2.023       .  S
O398        C406   1.275       .  A
O398       Co418   2.023       .  S
O399        C407   1.271       .  A
O399       Co419   1.990       .  S
O400        C408   1.271       .  A
O400       Co420   1.990       .  S
O401        C407   1.267       .  A
O401       Co418   1.960       .  S
O402        C408   1.267       .  A
O402       Co417   1.960       .  S
O403        C406   1.275       .  A
O403       Co420   2.057       .  S
O404        C405   1.275       .  A
O404       Co419   2.057       .  S
C406        C749   1.525       .  S
C407        C842   1.409       .  S
C408        C851   1.409       .  S
O409        C422   1.275       .  A
O409       Co417   2.057       .  S
O410        C423   1.275       .  A
O410       Co418   2.057       .  S
O411        C424   1.267       .  A
O411       Co419   1.960       .  S
O412        C425   1.267       .  A
O412       Co420   1.960       .  S
O413        C425   1.271       .  A
O413       Co418   1.990       .  S
O414        C424   1.271       .  A
O414       Co417   1.990       .  S
O415        C422   1.275       .  A
O415       Co420   2.023       .  S
O416        C423   1.275       .  A
O416       Co419   2.023       .  S
Co417       O421   2.110       .  S
Co418       O421   2.110       .  S
Co419       O421   2.110       .  S
Co420       O421   2.110       .  S
C423        C533   1.526       .  S
C424        C926   1.409       .  S
C425        C843   1.409       .  S
O426        C434   1.275       .  A
O426       Co446   2.023       .  S
O427        C435   1.275       .  A
O427       Co447   2.023       .  S
O428        C436   1.271       .  A
O428       Co448   1.990       .  S
O429        C437   1.271       .  A
O429       Co449   1.990       .  S
O430        C436   1.267   1_545  A
O430       Co447   1.960       .  S
O431        C437   1.267   1_565  A
O431       Co446   1.960       .  S
O432        C435   1.275       .  A
O432       Co449   2.057       .  S
O433        C434   1.275       .  A
O433       Co448   2.057       .  S
C436        C839   1.409       .  S
C437        C850   1.409       .  S
O438        C451   1.275       .  A
O438       Co446   2.057       .  S
O439        C452   1.275       .  A
O439       Co447   2.057       .  S
O440        C453   1.267       .  A
O440       Co448   1.960       .  S
O441        C454   1.267       .  A
O441       Co449   1.960       .  S
O442        C454   1.271       .  A
O442       Co447   1.990       .  S
O443        C453   1.271       .  A
O443       Co446   1.990       .  S
O444        C451   1.275       .  A
O444       Co449   2.023   1_565  S
O445        C452   1.275       .  A
O445       Co448   2.023   1_545  S
Co446       O450   2.110       .  S
Co447       O450   2.110   1_545  S
Co448       O450   2.110       .  S
Co449       O450   2.110   1_545  S
C451        C732   1.525       .  S
C452        C691   1.526       .  S
C453        C838   1.409       .  S
C454        C898   1.409       .  S
C455        C456   1.385       .  A
C455        C460   1.385   1_565  A
C455        C840   1.423       .  S
C456        C457   1.385   1_556  A
C456        C912   1.423       .  S
C457        C458   1.385   1_565  A
C457        C944   1.423       .  S
C458        C459   1.385       .  A
C458        C854   1.423       .  S
C459        C460   1.385   1_554  A
C459        C836   1.423       .  S
C460        C833   1.423       .  S
O461        C469   1.275       .  A
O461       Co481   2.023       .  S
O462        C470   1.275       .  A
O462       Co482   2.023       .  S
O463        C471   1.271       .  A
O463       Co483   1.990       .  S
O464        C472   1.271       .  A
O464       Co484   1.990       .  S
O465        C471   1.267       .  A
O465       Co482   1.960       .  S
O466        C472   1.267       .  A
O466       Co481   1.960       .  S
O467        C470   1.275       .  A
O467       Co484   2.057       .  S
O468        C469   1.275       .  A
O468       Co483   2.057       .  S
C470        C674   1.526       .  S
C471        C830   1.409       .  S
C472        C835   1.409       .  S
O473        C486   1.275       .  A
O473       Co481   2.057       .  S
O474        C487   1.275       .  A
O474       Co482   2.057       .  S
O475        C488   1.267       .  A
O475       Co483   1.960       .  S
O476        C489   1.267       .  A
O476       Co484   1.960       .  S
O477        C489   1.271       .  A
O477       Co482   1.990       .  S
O478        C488   1.271       .  A
O478       Co481   1.990       .  S
O479        C486   1.275       .  A
O479       Co484   2.023       .  S
O480        C487   1.275       .  A
O480       Co483   2.023       .  S
Co481       O485   2.110       .  S
Co482       O485   2.110       .  S
Co483       O485   2.110       .  S
Co484       O485   2.110       .  S
C487        C534   1.526       .  S
C488        C879   1.409       .  S
C489        C831   1.409       .  S
O490        C498   1.275       .  A
O490       Co510   2.057       .  S
O491        C499   1.275       .  A
O491       Co511   2.057       .  S
O492        C500   1.267       .  A
O492       Co512   1.960       .  S
O493        C501   1.267       .  A
O493       Co513   1.960       .  S
O494        C500   1.271       .  A
O494       Co511   1.990       .  S
O495        C501   1.271       .  A
O495       Co510   1.990       .  S
O496        C499   1.275       .  A
O496       Co513   2.023       .  S
O497        C498   1.275       .  A
O497       Co512   2.023       .  S
C500        C861   1.409       .  S
C501        C877   1.409       .  S
O502        C515   1.275       .  A
O502       Co510   2.023       .  S
O503        C516   1.275       .  A
O503       Co511   2.023       .  S
O504        C517   1.271       .  A
O504       Co512   1.990       .  S
O505        C518   1.271       .  A
O505       Co513   1.990       .  S
O506        C518   1.267       .  A
O506       Co511   1.960       .  S
O507        C517   1.267       .  A
O507       Co510   1.960       .  S
O508        C515   1.275       .  A
O508       Co513   2.057       .  S
O509        C516   1.275       .  A
O509       Co512   2.057       .  S
Co510       O514   2.110       .  S
Co511       O514   2.110       .  S
Co512       O514   2.110       .  S
Co513       O514   2.110       .  S
C516        C575   1.526       .  S
C517        C954   1.409       .  S
C518        C847   1.409       .  S
C519        C520   1.385       .  A
C519        C524   1.385       .  A
C519        C961   1.423       .  S
C520        C521   1.385       .  A
C520        C824   1.423       .  S
C521        C522   1.385       .  A
C521        C844   1.423       .  S
C522        C523   1.385       .  A
C522        C827   1.423       .  S
C523        C524   1.385       .  A
C523        C826   1.423       .  S
C524        C935   1.423       .  S
O525        C533   1.275       .  A
O525       Co545   2.057       .  S
O526        C534   1.275       .  A
O526       Co546   2.057       .  S
O527        C535   1.267       .  A
O527       Co547   1.960       .  S
O528        C536   1.267       .  A
O528       Co548   1.960       .  S
O529        C535   1.271       .  A
O529       Co546   1.990       .  S
O530        C536   1.271       .  A
O530       Co545   1.990       .  S
O531        C534   1.275       .  A
O531       Co548   2.024       .  S
O532        C533   1.275       .  A
O532       Co547   2.023       .  S
C535        C817   1.409       .  S
C536        C819   1.409       .  S
O537        C550   1.275       .  A
O537       Co545   2.023       .  S
O538        C551   1.275       .  A
O538       Co546   2.023       .  S
O539        C552   1.271       .  A
O539       Co547   1.990       .  S
O540        C553   1.271       .  A
O540       Co548   1.990       .  S
O541        C553   1.267       .  A
O541       Co546   1.960       .  S
O542        C552   1.267       .  A
O542       Co545   1.960       .  S
O543        C550   1.275       .  A
O543       Co548   2.057       .  S
O544        C551   1.275       .  A
O544       Co547   2.057       .  S
Co545       O549   2.110       .  S
Co546       O549   2.110       .  S
Co547       O549   2.110       .  S
Co548       O549   2.110       .  S
C550        C604   1.525       .  S
C551        C655   1.526       .  S
C552        C828   1.409       .  S
C553        C821   1.409       .  S
C554        C555   1.385       .  A
C554        C559   1.385       .  A
C554        C832   1.423       .  S
C555        C556   1.385       .  A
C555        C814   1.423       .  S
C556        C557   1.385       .  A
C556        C964   1.423       .  S
C557        C558   1.385       .  A
C557        C887   1.423       .  S
C558        C559   1.385       .  A
C558        C816   1.423       .  S
C559        C822   1.423       .  S
C560        C561   1.385       .  A
C560        C565   1.385       .  A
C560        C811   1.423       .  S
C561        C562   1.385       .  A
C561        C896   1.423       .  S
C562        C563   1.385       .  A
C562        C950   1.423       .  S
C563        C564   1.385       .  A
C563        C809   1.423       .  S
C564        C565   1.385       .  A
C564        C837   1.423       .  S
C565        C910   1.423       .  S
O566        C574   1.275       .  A
O566       Co586   2.023   1_565  S
O567        C575   1.275       .  A
O567       Co587   2.023   1_545  S
O568        C576   1.271       .  A
O568       Co588   1.990       .  S
O569        C577   1.271       .  A
O569       Co589   1.990       .  S
O570        C576   1.267       .  A
O570       Co587   1.960       .  S
O571        C577   1.267       .  A
O571       Co586   1.960       .  S
O572        C575   1.275       .  A
O572       Co589   2.057       .  S
O573        C574   1.275       .  A
O573       Co588   2.057       .  S
C576        C914   1.409       .  S
C577        C864   1.409       .  S
O578        C591   1.275       .  A
O578       Co586   2.057       .  S
O579        C592   1.275       .  A
O579       Co587   2.057       .  S
O580        C593   1.267   1_565  A
O580       Co588   1.960       .  S
O581        C594   1.267   1_545  A
O581       Co589   1.960       .  S
O582        C594   1.271       .  A
O582       Co587   1.990       .  S
O583        C593   1.271       .  A
O583       Co586   1.990       .  S
O584        C591   1.275       .  A
O584       Co589   2.023       .  S
O585        C592   1.275       .  A
O585       Co588   2.023       .  S
Co586       O590   2.110   1_545  S
Co587       O590   2.110       .  S
Co588       O590   2.110       .  S
Co589       O590   2.110   1_545  S
C593        C975   1.409       .  S
C594        C956   1.409       .  S
O595        C603   1.275       .  A
O595       Co615   2.023       .  S
O596        C604   1.275       .  A
O596       Co616   2.023       .  S
O597        C605   1.271       .  A
O597       Co617   1.990       .  S
O598        C606   1.272       .  A
O598       Co618   1.990       .  S
O599        C605   1.267       .  A
O599       Co616   1.960       .  S
O600        C606   1.267       .  A
O600       Co615   1.960       .  S
O601        C604   1.275       .  A
O601       Co618   2.057       .  S
O602        C603   1.275       .  A
O602       Co617   2.057       .  S
C605        C808   1.409       .  S
C606        C805   1.409       .  S
O607        C620   1.275       .  A
O607       Co615   2.057       .  S
O608        C621   1.275       .  A
O608       Co616   2.057       .  S
O609        C622   1.267       .  A
O609       Co617   1.960       .  S
O610        C623   1.267       .  A
O610       Co618   1.960       .  S
O611        C623   1.271       .  A
O611       Co616   1.990       .  S
O612        C622   1.271       .  A
O612       Co615   1.990       .  S
O613        C620   1.275       .  A
O613       Co618   2.023       .  S
O614        C621   1.275       .  A
O614       Co617   2.023       .  S
Co615       O619   2.110       .  S
Co616       O619   2.110       .  S
Co617       O619   2.110       .  S
Co618       O619   2.110       .  S
C622        C904   1.409       .  S
C623        C815   1.409       .  S
C624        C625   1.385       .  A
C624        C629   1.385       .  A
C624        C807   1.423       .  S
C625        C626   1.385   1_655  A
C625        C892   1.423       .  S
C626        C627   1.385       .  A
C626        C948   1.423       .  S
C627        C628   1.385       .  A
C627        C921   1.423       .  S
C628        C629   1.385   1_455  A
C628        C804   1.423       .  S
C629        C885   1.423       .  S
O630        C638   1.275       .  A
O630       Co650   2.057       .  S
O631        C639   1.275       .  A
O631       Co651   2.057       .  S
O632        C640   1.267       .  A
O632       Co652   1.960       .  S
O633        C641   1.267       .  A
O633       Co653   1.960       .  S
O634        C640   1.272       .  A
O634       Co651   1.990       .  S
O635        C641   1.271       .  A
O635       Co650   1.990       .  S
O636        C639   1.275       .  A
O636       Co653   2.023   1_556  S
O637        C638   1.275       .  A
O637       Co652   2.023   1_554  S
C640        C812   1.409       .  S
C641        C825   1.409       .  S
O642        C655   1.275       .  A
O642       Co650   2.023       .  S
O643        C656   1.275       .  A
O643       Co651   2.023       .  S
O644        C657   1.271       .  A
O644       Co652   1.990       .  S
O645        C658   1.272       .  A
O645       Co653   1.990       .  S
O646        C658   1.267   1_556  A
O646       Co651   1.960       .  S
O647        C657   1.267   1_554  A
O647       Co650   1.960       .  S
O648        C655   1.275       .  A
O648       Co653   2.057       .  S
O649        C656   1.275       .  A
O649       Co652   2.057       .  S
Co650       O654   2.110       .  S
Co651       O654   2.110   1_556  S
Co652       O654   2.110   1_556  S
Co653       O654   2.110       .  S
C657        C800   1.409       .  S
C658        C802   1.409       .  S
C659        C660   1.385       .  A
C659        C664   1.385       .  A
C659        C798   1.423       .  S
C660        C661   1.385   1_556  A
C660        C908   1.423       .  S
C661        C662   1.385       .  A
C661        C801   1.423       .  S
C662        C663   1.385       .  A
C662        C818   1.423       .  S
C663        C664   1.385   1_554  A
C663        C829   1.423       .  S
C664        C872   1.423       .  S
O665        C673   1.275       .  A
O665       Co685   2.023   1_556  S
O666        C674   1.275       .  A
O666       Co686   2.023   1_554  S
O667        C675   1.271       .  A
O667       Co687   1.990       .  S
O668        C676   1.271       .  A
O668       Co688   1.990       .  S
O669        C675   1.267       .  A
O669       Co686   1.960       .  S
O670        C676   1.267       .  A
O670       Co685   1.960       .  S
O671        C674   1.275       .  A
O671       Co688   2.057       .  S
O672        C673   1.275       .  A
O672       Co687   2.057       .  S
C675        C900   1.409       .  S
C676        C813   1.409       .  S
O677        C690   1.275       .  A
O677       Co685   2.057       .  S
O678        C691   1.275       .  A
O678       Co686   2.057       .  S
O679        C692   1.267   1_556  A
O679       Co687   1.960       .  S
O680        C693   1.267   1_554  A
O680       Co688   1.960       .  S
O681        C693   1.271       .  A
O681       Co686   1.990       .  S
O682        C692   1.271       .  A
O682       Co685   1.990       .  S
O683        C690   1.275       .  A
O683       Co688   2.023       .  S
O684        C691   1.275       .  A
O684       Co687   2.023       .  S
Co685       O689   2.110       .  S
Co686       O689   2.110   1_556  S
Co687       O689   2.110   1_556  S
Co688       O689   2.110       .  S
C692        C973   1.409       .  S
C693        C834   1.409       .  S
O694        C702   1.275       .  A
O694       Co714   2.057       .  S
O695        C703   1.275       .  A
O695       Co715   2.057       .  S
O696        C704   1.267       .  A
O696       Co716   1.960       .  S
O697        C705   1.267       .  A
O697       Co717   1.960       .  S
O698        C704   1.271       .  A
O698       Co715   1.990       .  S
O699        C705   1.271       .  A
O699       Co714   1.990       .  S
O700        C703   1.275       .  A
O700       Co717   2.023       .  S
O701        C702   1.275       .  A
O701       Co716   2.023       .  S
C704        C866   1.409       .  S
C705        C915   1.409       .  S
O706        C719   1.275       .  A
O706       Co714   2.023       .  S
O707        C720   1.275       .  A
O707       Co715   2.023       .  S
O708        C721   1.272       .  A
O708       Co716   1.990       .  S
O709        C722   1.271       .  A
O709       Co717   1.990       .  S
O710        C722   1.267       .  A
O710       Co715   1.960       .  S
O711        C721   1.267       .  A
O711       Co714   1.960       .  S
O712        C719   1.275       .  A
O712       Co717   2.057       .  S
O713        C720   1.275       .  A
O713       Co716   2.057       .  S
Co714       O718   2.110       .  S
Co715       O718   2.110       .  S
Co716       O718   2.110       .  S
Co717       O718   2.110       .  S
C721        C796   1.409       .  S
C722        C797   1.409       .  S
O723        C731   1.275       .  A
O723       Co743   2.057       .  S
O724        C732   1.275       .  A
O724       Co744   2.057       .  S
O725        C733   1.267       .  A
O725       Co745   1.960       .  S
O726        C734   1.267       .  A
O726       Co746   1.960       .  S
O727        C733   1.272       .  A
O727       Co744   1.990       .  S
O728        C734   1.271       .  A
O728       Co743   1.990       .  S
O729        C732   1.275       .  A
O729       Co746   2.023       .  S
O730        C731   1.275       .  A
O730       Co745   2.023       .  S
C733        C846   1.409       .  S
C734        C951   1.409       .  S
O735        C748   1.275       .  A
O735       Co743   2.023       .  S
O736        C749   1.275       .  A
O736       Co744   2.023       .  S
O737        C750   1.271       .  A
O737       Co745   1.990       .  S
O738        C751   1.272       .  A
O738       Co746   1.990       .  S
O739        C751   1.267       .  A
O739       Co744   1.960       .  S
O740        C750   1.267       .  A
O740       Co743   1.960       .  S
O741        C748   1.275       .  A
O741       Co746   2.057       .  S
O742        C749   1.275       .  A
O742       Co745   2.057       .  S
Co743       O747   2.110       .  S
Co744       O747   2.110       .  S
Co745       O747   2.110       .  S
Co746       O747   2.110       .  S
C750        C823   1.409       .  S
C751        C810   1.409       .  S
O752        C760   1.275       .  A
O752       Co772   2.023       .  S
O753        C761   1.275       .  A
O753       Co773   2.023       .  S
O754        C762   1.271       .  A
O754       Co774   1.990       .  S
O755        C763   1.271       .  A
O755       Co775   1.990       .  S
O756        C762   1.267       .  A
O756       Co773   1.960       .  S
O757        C763   1.267       .  A
O757       Co772   1.960       .  S
O758        C761   1.275       .  A
O758       Co775   2.057       .  S
O759        C760   1.275       .  A
O759       Co774   2.057       .  S
C762        C794   1.409       .  S
C763        C803   1.409       .  S
O764        C777   1.275       .  A
O764       Co772   2.057       .  S
O765        C778   1.275       .  A
O765       Co773   2.057       .  S
O766        C779   1.267       .  A
O766       Co774   1.960       .  S
O767        C780   1.267       .  A
O767       Co775   1.960       .  S
O768        C780   1.272       .  A
O768       Co773   1.990       .  S
O769        C779   1.271       .  A
O769       Co772   1.990       .  S
O770        C777   1.275       .  A
O770       Co775   2.023       .  S
O771        C778   1.275       .  A
O771       Co774   2.023       .  S
Co772       O776   2.110       .  S
Co773       O776   2.110       .  S
Co774       O776   2.110       .  S
Co775       O776   2.110       .  S
C779        C930   1.409       .  S
C780        C876   1.409       .  S
C781        C782   1.385       .  A
C781        C786   1.385       .  A
C781        C841   1.423       .  S
C782        C783   1.385       .  A
C782        C919   1.423       .  S
C783        C784   1.385       .  A
C783        C795   1.423       .  S
C784        C785   1.385       .  A
C784        C858   1.423       .  S
C785        C786   1.385       .  A
C785        C806   1.423       .  S
C786        C820   1.423       .  S
C787        C788   1.385   1_655  A
C787        C792   1.385       .  A
C787        C894   1.423       .  S
C788        C789   1.385   1_556  A
C788        C970   1.423       .  S
C789        C790   1.385       .  A
C789        C870   1.423       .  S
C790        C791   1.385   1_455  A
C790        C793   1.423       .  S
C791        C792   1.385   1_554  A
C791        C934   1.423       .  S
C792        C799   1.423       .  S
C793        C794   1.190       .  T
C795        C796   1.190       .  T
C797        C798   1.190       .  T
C799        C800   1.190       .  T
C801        C802   1.190       .  T
C803        C804   1.190       .  T
C805        C806   1.190       .  T
C807        C808   1.190       .  T
C809        C810   1.190       .  T
C811        C812   1.190       .  T
C813        C814   1.190       .  T
C815        C816   1.190       .  T
C817        C818   1.190       .  T
C819        C820   1.190       .  T
C821        C822   1.190       .  T
C823        C824   1.190       .  T
C825        C826   1.190       .  T
C827        C828   1.190       .  T
C829        C830   1.190       .  T
C831        C832   1.190       .  T
C833        C834   1.190       .  T
C835        C836   1.190       .  T
C837        C838   1.190       .  T
C839        C840   1.190       .  T
C841        C842   1.190       .  T
C843        C844   1.190       .  T
C845        C846   1.190       .  T
C847        C848   1.190       .  T
C849        C850   1.190       .  T
C851        C852   1.190       .  T
C853        C854   1.190       .  T
C855        C856   1.190       .  T
C857        C858   1.190       .  T
C859        C860   1.190       .  T
C861        C862   1.190       .  T
C863        C864   1.190       .  T
C865        C866   1.190       .  T
C867        C868   1.190       .  T
C869        C870   1.190       .  T
C871        C872   1.190       .  T
C873        C874   1.190       .  T
C875        C876   1.190       .  T
C877        C878   1.190       .  T
C879        C880   1.190       .  T
C881        C882   1.190       .  T
C883        C884   1.190       .  T
C885        C886   1.190       .  T
C887        C888   1.190       .  T
C889        C890   1.190       .  T
C891        C892   1.190       .  T
C893        C894   1.190       .  T
C895        C896   1.190       .  T
C897        C898   1.190       .  T
C899        C900   1.190       .  T
C901        C902   1.190       .  T
C903        C904   1.190       .  T
C905        C906   1.190       .  T
C907        C908   1.190       .  T
C909        C910   1.190       .  T
C911        C912   1.190       .  T
C913        C914   1.190       .  T
C915        C916   1.190       .  T
C917        C918   1.190       .  T
C919        C920   1.190       .  T
C921        C922   1.190       .  T
C923        C924   1.190       .  T
C925        C926   1.190       .  T
C927        C928   1.190       .  T
C929        C930   1.190       .  T
C931        C932   1.190       .  T
C933        C934   1.190       .  T
C935        C936   1.190       .  T
C937        C938   1.190       .  T
C939        C940   1.190       .  T
C941        C942   1.190       .  T
C943        C944   1.190       .  T
C945        C946   1.190       .  T
C947        C948   1.190       .  T
C949        C950   1.190       .  T
C951        C952   1.190       .  T
C953        C954   1.190       .  T
C955        C956   1.190       .  T
C957        C958   1.190       .  T
C959        C960   1.190       .  T
C961        C962   1.190       .  T
C963        C964   1.190       .  T
C965        C966   1.190       .  T
C967        C968   1.190       .  T
C969        C970   1.190       .  T
C971        C972   1.190       .  T
C973        C974   1.190       .  T
C975        C976   1.190       .  T
C977        C978   1.190       .  T
C979        C980   1.190       .  T
C981        C982   1.190       .  T
C983        C984   1.190       .  T
