geometry optimzed in LAMMPS
_audit_creation_date              2020-11-30 
_audit_creation_method            'lammps2cif' 
_symmetry_space_group_name_H-M    'P1' 
_symmetry_Int_Tables_number       1 
_symmetry_cell_setting            triclinic 
loop_ 
_symmetry_equiv_pos_as_xyz 
  x,y,z 
_cell_length_a                    35.30222029322902 
_cell_length_b                    34.90286683118932 
_cell_length_c                    34.95856394460703 
_cell_angle_alpha                 98.15899912436635 
_cell_angle_beta                  81.32108220319283 
_cell_angle_gamma                 98.34917572869566 
loop_ 
_atom_site_label 
_atom_site_type_symbol 
_atom_site_fract_x 
_atom_site_fract_y 
_atom_site_fract_z 
_atom_site_charge 
C1          C  0.21606201  0.24081183  0.50279061     0.03320
C2          C  0.18273018  0.25313918  0.49416424    -0.12830
C3          C  0.17772281  0.29278373  0.50205733     0.00820
C4          C  0.20836511  0.31908300  0.01737217    -0.11360
C5          C  0.24038202  0.30432226  0.02826543     0.03310
C6          C  0.23568247  0.26447995  0.03059839    -0.10780
H7          H  0.16588418  0.23441482  0.47401630     0.08910
H8          H  0.20889928  0.34999397  0.01684589     0.06440
H9          H  0.25738942  0.25255034  0.04253413     0.06280
C10         C  0.34643379  0.19893731  0.40026232     0.03320
C11         C  0.37982390  0.18684848  0.40912677    -0.12830
C12         C  0.38583322  0.14749238  0.39965499     0.00820
C13         C  0.35496782  0.12106767  0.38433408    -0.11360
C14         C  0.32288859  0.13576922  0.37351266     0.03310
C15         C  0.32744149  0.17566157  0.37142973    -0.10780
H16         H  0.39553481  0.20494032  0.43071978     0.08910
H17         H  0.35456538  0.09014465  0.38468655     0.06440
H18         H  0.30572794  0.18758779  0.35950542     0.06280
C19         C  0.30220235  0.02174814  0.26549522     0.03320
C20         C  0.32646515  0.04958597  0.24529650    -0.12830
C21         C  0.36563587  0.04609314  0.24056625     0.00820
C22         C  0.37959805  0.03435582  0.27272075    -0.11360
C23         C  0.35310146  0.01943858  0.30402330     0.03310
C24         C  0.31391437  0.01249067  0.29910455    -0.10780
H25         H  0.31551430  0.06182861  0.22300174     0.08910
H26         H  0.40994589  0.03254523  0.27183011     0.06440
H27         H  0.29538390  0.49139484  0.31523682     0.06280
C28         C  0.26150350  0.41822581  0.13584048     0.03320
C29         C  0.24981461  0.42751933  0.10223697    -0.12830
C30         C  0.21065865  0.42039898  0.09719866     0.00820
C31         C  0.18414644  0.40537812  0.12844025    -0.11360
C32         C  0.19810069  0.39366470  0.16061160     0.03310
C33         C  0.23729039  0.39026828  0.15592144    -0.10780
H34         H  0.26832720  0.44870249  0.08618344     0.08910
H35         H  0.15378395  0.40709909  0.12928282     0.06440
H36         H  0.24824390  0.37800535  0.17820064     0.06280
O37         O  0.33625097  0.49362127  0.46044937    -0.72750
O38         O  0.34472804  0.02487339  0.07821400    -0.73730
O39         O  0.36604562  0.06040970  0.50662683    -0.62350
O40         O  0.31491002  0.45326500  0.53052671    -0.70760
O41         O  0.37398105  0.43695447  0.52249400    -0.70320
O42         O  0.42347590  0.03914733  0.49769938    -0.61570
O43         O  0.40233073  0.00440449  0.06612636    -0.74080
O44         O  0.39348576  0.47274850  0.45362456    -0.72860
Cu45       Cu  0.33801017  0.00860930  0.51966122     1.04560
Cu46       Cu  0.39983893  0.48747468  0.50998519     1.04330
C47         C  0.36495947  0.48003724  0.43838699     0.93440
C48         C  0.37675152  0.02131106  0.08970387     0.92580
C49         C  0.40253905  0.06516913  0.49550029     0.84730
C50         C  0.33771999  0.42795598  0.53067305     0.91000
C51         C  0.38765639  0.04624097  0.19985636     0.03320
C52         C  0.36810509  0.03691718  0.16564086    -0.12830
C53         C  0.38893105  0.03975007  0.12811522     0.00820
C54         C  0.42777307  0.05434423  0.12587806    -0.11360
C55         C  0.44846725  0.05264704  0.15639734     0.03310
C56         C  0.42840194  0.05082080  0.19394413    -0.10780
H57         H  0.33776794  0.02595107  0.16779659     0.08910
H58         H  0.44333942  0.05957835  0.09747673     0.06440
H59         H  0.44432515  0.05191765  0.21777115     0.06280
C60         C  0.47819729  0.13214287  0.44071038     0.03320
C61         C  0.45462295  0.14558137  0.41711588    -0.12830
C62         C  0.41386362  0.13350330  0.42105478     0.00820
C63         C  0.39760759  0.10967010  0.44950788    -0.11360
C64         C  0.41994992  0.09756670  0.47382693     0.03310
C65         C  0.45994536  0.10876402  0.46947073    -0.10780
H66         H  0.46835475  0.16336327  0.39505430     0.08910
H67         H  0.36695261  0.09939387  0.45208791     0.06440
H68         H  0.47728134  0.09711596  0.48709118     0.06280
O69         O  0.00945436  0.46299410  0.25081758    -0.72750
O70         O  0.47991621  0.34523399  0.26386716    -0.73730
O71         O  0.44298882  0.41522634  0.28108831    -0.62350
O72         O  0.05019851  0.39277285  0.23256374    -0.70760
O73         O  0.06536817  0.40550041  0.29256209    -0.70320
O74         O  0.46247295  0.42548827  0.33966996    -0.61570
O75         O  0.50014951  0.35999113  0.32174568    -0.74080
O76         O  0.02734171  0.47224961  0.30983643    -0.72860
Cu77       Cu  0.49511922  0.40343367  0.25451727     1.04560
Cu78       Cu  0.01463182  0.41598189  0.31743277     1.04330
C79         C  0.02157507  0.48621056  0.27965506     0.93440
C80         C  0.48383632  0.33521300  0.29685157     0.92580
C81         C  0.43676253  0.42540899  0.31791171     0.84730
C82         C  0.07478682  0.39495671  0.25644470     0.91000
C83         C  0.02961732  0.02966493  0.28011105     0.03320
C84         C  0.06072370  0.04848049  0.29909344    -0.12830
C85         C  0.06479026  0.08879031  0.31047442     0.00820
C86         C  0.04020393  0.11153629  0.29912856    -0.11330
C87         C  0.00825968  0.09436557  0.28092890     0.03310
C88         C  0.50314157  0.05293753  0.27096134    -0.10780
H89         H  0.07956298  0.03108255  0.30899910     0.08910
H90         H  0.04395774  0.14279572  0.30773628     0.06440
H91         H  0.47790558  0.03851314  0.25885020     0.06280
C92         C  0.17606462  0.39351278  0.20131723     0.03320
C93         C  0.13531375  0.38890000  0.20722708    -0.12830
C94         C  0.11524744  0.38710215  0.24478269     0.00820
C95         C  0.13595752  0.38548232  0.27531461    -0.11360
C96         C  0.17480698  0.40006537  0.27306044     0.03310
C97         C  0.19561800  0.40286971  0.23553091    -0.10780
H98         H  0.11938826  0.38774942  0.18338504     0.08910
H99         H  0.12040176  0.38025821  0.30372193     0.06440
H100        H  0.22595310  0.41383518  0.23337354     0.06280
O101        O  0.16144614  0.43528989  0.33510695    -0.72750
O102        O  0.17036440  0.46685751  0.44757751    -0.73730
O103        O  0.19000459  0.50278157  0.37880728    -0.62350
O104        O  0.14036337  0.40050232  0.40337571    -0.70760
O105        O  0.19778636  0.37923818  0.39446113    -0.70320
O106        O  0.24906668  0.48646821  0.37074218    -0.61570
O107        O  0.22760485  0.44600445  0.44076937    -0.74080
O108        O  0.21909917  0.41494009  0.32290326    -0.72860
Cu109      Cu  0.16407674  0.45222813  0.39120706     1.04560
Cu110      Cu  0.22586563  0.43108130  0.38152825     1.04330
C111        C  0.18703327  0.41846333  0.31147006     0.93440
C112        C  0.19888149  0.45957350  0.46282615     0.92580
C113        C  0.22626906  0.51179597  0.37062488     0.84730
C114        C  0.16127939  0.37443960  0.40551611     0.91000
O115        O  0.06349436  0.07958267  0.07937256    -0.72750
O116        O  0.03629593  0.46735957  0.09138213    -0.73730
O117        O  0.99828160  0.03412144  0.10861544    -0.62350
O118        O  0.10116004  0.51409524  0.06150465    -0.70760
O119        O  0.12066059  0.52442532  0.12008197    -0.70320
O120        O  0.01347924  0.04688049  0.16860527    -0.61570
O121        O  0.05421002  0.47664718  0.15039051    -0.74080
O122        O  0.08372300  0.09438183  0.13725359    -0.72860
Cu123      Cu  0.04901427  0.52361110  0.08373904     1.04560
Cu124      Cu  0.06853274  0.03620296  0.14664861     1.04330
C125        C  0.07980360  0.10437401  0.10425683     0.93440
C126        C  0.04206645  0.45341700  0.12157196     0.92580
C127        C  0.98889197  0.04470962  0.14472854     0.84730
C128        C  0.12688355  0.51423349  0.08326213     0.91000
O129        O  0.04328416  0.16535982  0.42097082    -0.72750
O130        O  0.16185289  0.15872105  0.39110254    -0.73730
O131        O  0.09291703  0.14132192  0.35275218    -0.62350
O132        O  0.11123345  0.18466876  0.46315836    -0.70760
O133        O  0.10245025  0.12346339  0.47556644    -0.70320
O134        O  0.08463779  0.08131686  0.36950172    -0.61570
O135        O  0.14918854  0.09906247  0.40814935    -0.74080
O136        O  0.03696871  0.10534264  0.43674903    -0.72860
Cu137      Cu  0.10298955  0.16511140  0.40657329     1.04560
Cu138      Cu  0.09331866  0.10076599  0.42314644     1.04330
C139        C  0.02154264  0.13506223  0.43234725     0.93440
C140        C  0.17311191  0.12574220  0.39324016     0.92580
C141        C  0.08360712  0.10453058  0.34485846     0.84730
C142        C  0.10939800  0.15974544  0.48711631     0.91000
C143        C  0.10573129  0.21397413  0.09041178     0.03320
C144        C  0.09544156  0.18002588  0.11062324    -0.12830
C145        C  0.09714114  0.14239835  0.09014878     0.00820
C146        C  0.11109246  0.13942832  0.05065159    -0.11360
C147        C  0.11306375  0.17054775  0.02912686     0.03310
C148        C  0.11173215  0.20827093  0.04921749    -0.10780
H149        H  0.08501767  0.18266986  0.14147183     0.08910
H150        H  0.11526238  0.11067135  0.03555048     0.06440
H151        H  0.11501034  0.23268393  0.03309633     0.06280
C152        C  0.19620441  0.46640436  0.00641681     0.03320
C153        C  0.17290768  0.49434781  0.02586335    -0.12830
C154        C  0.16125556  0.49644597  0.06602799     0.00820
C155        C  0.17439261  0.47214524  0.08777985    -0.11360
C156        C  0.19764806  0.44388528  0.07015896     0.03310
C157        C  0.20936131  0.44138238  0.02899794    -0.10780
H158        H  0.16100050  0.51257216  0.00920886     0.08910
H159        H  0.16475430  0.47403982  0.11887165     0.06440
H160        H  0.22649243  0.41923028  0.01425401     0.06280
C161        C  0.28256489  0.11374076  0.37222909     0.03320
C162        C  0.27634677  0.07250875  0.36735037    -0.12830
C163        C  0.23930856  0.05280085  0.36318922     0.00820
C164        C  0.21007530  0.07459669  0.35983104    -0.11360
C165        C  0.21178157  0.11358492  0.37554507     0.03310
C166        C  0.24866502  0.13389660  0.38060277    -0.10780
H167        H  0.29948772  0.05599353  0.36796214     0.08910
H168        H  0.18241052  0.05949225  0.35280300     0.06440
H169        H  0.25044079  0.16428686  0.39252926     0.06280
O170        O  0.41450051  0.34050680  0.49298213    -0.72750
O171        O  0.02669713  0.33434873  0.46429445    -0.73730
O172        O  0.46111311  0.31603882  0.42558679    -0.62350
O173        O  0.97867837  0.35834914  0.03187576    -0.70760
O174        O  0.97046431  0.29834512  0.04861670    -0.70320
O175        O  0.45219322  0.25482313  0.43800448    -0.61570
O176        O  0.02040593  0.27432360  0.48004377    -0.74080
O177        O  0.40181242  0.28086655  0.51009267    -0.72860
Cu178      Cu  0.97033666  0.33883345  0.47795109     1.04560
Cu179      Cu  0.46065342  0.27448877  0.49453702     1.04330
C180        C  0.39058227  0.31385392  0.50793231     0.93440
C181        C  0.04214465  0.30465154  0.46870324     0.92580
C182        C  0.45401164  0.27976136  0.41406624     0.84730
C183        C  0.97978113  0.33513654  0.05650200     0.91000
C184        C  0.03395883  0.40996447  0.12114721     0.03320
C185        C  0.00280692  0.39118001  0.10221313    -0.12830
C186        C  0.99868210  0.35086923  0.09084404     0.00820
C187        C  0.02325892  0.32809296  0.10216609    -0.11360
C188        C  0.05524902  0.34523074  0.12031589     0.03310
C189        C  0.06042670  0.38665982  0.13026029    -0.10780
H190        H  0.98397183  0.40860147  0.09233469     0.08910
H191        H  0.01945841  0.29683265  0.09357421     0.06440
H192        H  0.08570783  0.40105473  0.14231823     0.06280
C193        C  0.08551018  0.30762837  0.46039971     0.03320
C194        C  0.10904584  0.29447269  0.48422271    -0.12830
C195        C  0.14982531  0.30642804  0.48021365     0.00820
C196        C  0.16617951  0.32978421  0.45137313    -0.11360
C197        C  0.14383130  0.34196316  0.42709787     0.03310
C198        C  0.10380435  0.33087143  0.43153116    -0.10780
H199        H  0.09526955  0.27702128  0.50653074     0.08910
H200        H  0.19689983  0.33975664  0.44854274     0.06440
H201        H  0.08648465  0.34249796  0.41387887     0.06280
C202        C  0.45774852  0.22558411  0.31067255     0.03320
C203        C  0.45170298  0.23127131  0.35186400    -0.12830
C204        C  0.45059256  0.26901056  0.37195308     0.00820
C205        C  0.45257552  0.30014631  0.35045217    -0.11360
C206        C  0.46648166  0.29717810  0.31094763     0.03310
C207        C  0.46812037  0.25954016  0.29046649    -0.10780
H208        H  0.44819547  0.20683334  0.36798558     0.08910
H209        H  0.44846679  0.32890738  0.36557931     0.06440
H210        H  0.47855316  0.25689363  0.25962041     0.06280
C211        C  0.36752936  0.47336806  0.39478217     0.03320
C212        C  0.35439189  0.99842803  0.37220668    -0.12830
C213        C  0.36608582  0.99590436  0.33104280     0.00820
C214        C  0.38931373  0.46759776  0.31341134    -0.11360
C215        C  0.40241803  0.44326215  0.33515541     0.03310
C216        C  0.39077510  0.44538017  0.37532506    -0.10780
H217        H  0.33731250  0.02063102  0.38694230     0.08910
H218        H  0.39893396  0.46568340  0.28231618     0.06440
H219        H  0.40265215  0.42713065  0.39197790     0.06280
C220        C  0.28077786  0.32618475  0.02939440     0.03320
C221        C  0.28713218  0.36739504  0.03421705    -0.12830
C222        C  0.32420401  0.38698334  0.03836359     0.00820
C223        C  0.35334719  0.36508757  0.04175763    -0.11360
C224        C  0.35153077  0.32609157  0.02603021     0.03310
C225        C  0.31459061  0.30589260  0.02098500    -0.10780
H226        H  0.26406104  0.38398123  0.03358071     0.08910
H227        H  0.38104516  0.38011871  0.04876911     0.06440
H228        H  0.31268824  0.27549101  0.00905575     0.06280
C229        C  0.47231353  0.15949245  0.22260998     0.03320
C230        C  0.48190243  0.12499825  0.23268729    -0.12830
C231        C  0.48236862  0.12152867  0.27210696     0.00820
C232        C  0.47133692  0.15348980  0.30018090    -0.11360
C233        C  0.45632529  0.18509865  0.28842181     0.03310
C234        C  0.44798617  0.18054479  0.25015827    -0.10780
H235        H  0.99956187  0.10769534  0.21102387     0.08910
H236        H  0.47850932  0.15557550  0.32935384     0.06440
H237        H  0.43545303  0.20364610  0.24081694     0.06280
C238        C  0.09136697  0.28009492  0.17851290     0.03320
C239        C  0.11562232  0.25902302  0.15090035    -0.12830
C240        C  0.10716275  0.25445605  0.11267519     0.00820
C241        C  0.09209033  0.28605679  0.10097937    -0.11360
C242        C  0.08115746  0.31804393  0.12906853     0.03310
C243        C  0.08177150  0.31460526  0.16847121    -0.10780
H244        H  0.12819002  0.23592305  0.16020329     0.08910
H245        H  0.08478982  0.28394356  0.07186246     0.06440
H246        H  0.06419559  0.33194299  0.19018515     0.06280
C247        C  0.00489580  0.18626932  0.20560750    -0.05930
C248        C  0.03870501  0.19338291  0.22403027    -0.17060
C249        C  0.06528571  0.22665412  0.21959212     0.11260
C250        C  0.05878810  0.25332425  0.19553684    -0.05860
C251        C  0.02497072  0.24621519  0.17712731    -0.17090
C252        C  0.99840548  0.21293198  0.18154273     0.11300
S253        S  0.10771025  0.23488077  0.24429620    -0.32060
S254        S  0.45601000  0.20467723  0.15679178    -0.32060
H255        H  0.46273023  0.23968122  0.13981416     0.29300
H256        H  0.10099716  0.19986583  0.26125487     0.29300
H257        H  0.04334589  0.17398253  0.24387942     0.19890
H258        H  0.02031745  0.26562109  0.15729135     0.19900
C259        C  0.27971265  0.44977392  0.16285457    -0.05930
C260        C  0.30118209  0.43742662  0.18826311    -0.17060
C261        C  0.30147235  0.45547885  0.22646210     0.11260
C262        C  0.28390997  0.49017963  0.23857562    -0.05860
C263        C  0.26242867  0.50252127  0.21317507    -0.17090
C264        C  0.26211123  0.48445322  0.17498281     0.11300
S265        S  0.32024251  0.43035315  0.25983136    -0.32060
S266        S  0.24322660  0.50952965  0.14165260    -0.32060
H267        H  0.22277908  0.53466068  0.16969693     0.29300
H268        H  0.34066813  0.40517801  0.23181594     0.29300
H269        H  0.31324945  0.41018099  0.17967246     0.19890
H270        H  0.25036552  0.02977990  0.22175199     0.19900
C271        C  0.24297957  0.22260114  0.47105479    -0.05930
C272        C  0.26598627  0.19803363  0.48253551    -0.17060
C273        C  0.30381345  0.19559923  0.46456136     0.11260
C274        C  0.31860014  0.21597722  0.43187784    -0.05860
C275        C  0.29562087  0.24065805  0.42057553    -0.17090
C276        C  0.25770662  0.24240379  0.43802695     0.11300
S277        S  0.33297523  0.16868294  0.48643108    -0.32060
S278        S  0.22952311  0.26859351  0.41454168    -0.32060
H279        H  0.19931896  0.23765017  0.41223192     0.29300
H280        H  0.30257401  0.14741555  0.50849247     0.29300
H281        H  0.25569503  0.18435095  0.50876513     0.19890
H282        H  0.30577489  0.25494307  0.39464680     0.19900
C283        C  0.21654178  0.24112677  0.00193689     0.03320
C284        C  0.18324123  0.25328660  0.99296790    -0.12830
C285        C  0.17739752  0.29269232  0.00219229     0.00820
C286        C  0.20907364  0.31912653  0.51647935    -0.11360
C287        C  0.24092433  0.30435300  0.52765355     0.03310
C288        C  0.23604095  0.26460095  0.53058762    -0.10780
H289        H  0.16749219  0.23515244  0.97143813     0.08910
H290        H  0.20995501  0.34995986  0.51526206     0.06440
H291        H  0.25783879  0.25272854  0.54244212     0.06280
C292        C  0.34706635  0.19843292  0.89934376     0.03320
C293        C  0.38036940  0.18628621  0.90832511    -0.12830
C294        C  0.38624215  0.14688863  0.89907339     0.00820
C295        C  0.35528944  0.12049028  0.88387210    -0.11360
C296        C  0.32326986  0.13524339  0.87297477     0.03310
C297        C  0.32795992  0.17508692  0.87065382    -0.10780
H298        H  0.39609967  0.20441746  0.92987257     0.08910
H299        H  0.35476560  0.08957871  0.88438648     0.06440
H300        H  0.30625543  0.18701130  0.85870893     0.06280
C301        C  0.30221065  0.02134912  0.76534424     0.03320
C302        C  0.32643611  0.04929183  0.74525369    -0.12830
C303        C  0.36562500  0.04589730  0.74058055     0.00820
C304        C  0.37956324  0.03418188  0.77276183    -0.11360
C305        C  0.35304031  0.01917193  0.80400342     0.03310
C306        C  0.31388519  0.01206776  0.79896065    -0.10780
H307        H  0.31549084  0.06155590  0.72297044     0.08910
H308        H  0.40992208  0.03246107  0.77193460     0.06440
H309        H  0.29537198  0.49092525  0.81503520     0.06280
C310        C  0.26150840  0.41778902  0.63572759     0.03320
C311        C  0.24980961  0.42704297  0.60211152    -0.12830
C312        C  0.21062106  0.42013847  0.59720064     0.00820
C313        C  0.18410824  0.40524002  0.62850625    -0.11360
C314        C  0.19805506  0.39349171  0.66066389     0.03310
C315        C  0.23722172  0.38997746  0.65594169    -0.10780
H316        H  0.26839742  0.44808208  0.58593964     0.08910
H317        H  0.15375922  0.40706464  0.62939580     0.06440
H318        H  0.24815979  0.37773140  0.67824230     0.06280
O319        O  0.33619413  0.49352122  0.96043543    -0.72750
O320        O  0.34478401  0.02481524  0.57826264    -0.73730
O321        O  0.36621506  0.06029242  0.00647170    -0.62350
O322        O  0.31464998  0.45330421  0.03060086    -0.70760
O323        O  0.37365323  0.43684534  0.02263590    -0.70320
O324        O  0.42356151  0.03886300  0.99765013    -0.61570
O325        O  0.40246756  0.00452872  0.56607758    -0.74080
O326        O  0.39335118  0.47249601  0.95368553    -0.72860
Cu327      Cu  0.33796911  0.00858873  0.01962290     1.04560
Cu328      Cu  0.39969778  0.48727782  0.01004251     1.04330
C329        C  0.36487354  0.47984632  0.93841050     0.93440
C330        C  0.37685066  0.02132486  0.58970776     0.92580
C331        C  0.40271670  0.06493007  0.99534615     0.84730
C332        C  0.33737879  0.42793751  0.03082547     0.91000
C333        C  0.38769067  0.04610413  0.69988927     0.03320
C334        C  0.36817153  0.03680957  0.66565038    -0.12830
C335        C  0.38901585  0.03970260  0.62814501     0.00820
C336        C  0.42785129  0.05432175  0.62594828    -0.11360
C337        C  0.44853138  0.05259337  0.65647184     0.03310
C338        C  0.42844037  0.05070431  0.69400579    -0.10780
H339        H  0.33784214  0.02581849  0.66776701     0.08910
H340        H  0.44343089  0.05960856  0.59756629     0.06440
H341        H  0.44434555  0.05176348  0.71784188     0.06280
C342        C  0.47850947  0.13185137  0.94052330     0.03320
C343        C  0.45496859  0.14518053  0.91681647    -0.12830
C344        C  0.41423120  0.13296632  0.92058993     0.00820
C345        C  0.39794079  0.10916747  0.94905902    -0.11360
C346        C  0.42021783  0.09721151  0.97353612     0.03310
C347        C  0.46021515  0.10845609  0.96926713    -0.10780
H348        H  0.46871790  0.16301143  0.89480833     0.08910
H349        H  0.36729962  0.09883611  0.95156759     0.06440
H350        H  0.47751558  0.09687582  0.98697325     0.06280
O351        O  0.00946895  0.46291959  0.75086657    -0.72750
O352        O  0.47995391  0.34517173  0.76398876    -0.73730
O353        O  0.44302486  0.41512691  0.78116058    -0.62350
O354        O  0.05019373  0.39269479  0.73263323    -0.70760
O355        O  0.06539645  0.40543296  0.79262081    -0.70320
O356        O  0.46252430  0.42546490  0.83973859    -0.61570
O357        O  0.50018070  0.35997306  0.82186973    -0.74080
O358        O  0.02739569  0.47219936  0.80986922    -0.72860
Cu359      Cu  0.49513984  0.40335757  0.75459595     1.04560
Cu360      Cu  0.01467471  0.41594677  0.81750470     1.04330
C361        C  0.02161771  0.48614640  0.77968526     0.93440
C362        C  0.48387016  0.33518036  0.79698769     0.92580
C363        C  0.43680118  0.42532390  0.81797874     0.84730
C364        C  0.07478402  0.39485614  0.75650414     0.91000
C365        C  0.02970758  0.02959896  0.78011559     0.03320
C366        C  0.06086365  0.04838565  0.79904203    -0.12830
C367        C  0.06498514  0.08869668  0.81041295     0.00820
C368        C  0.04040283  0.11147115  0.79909717    -0.11330
C369        C  0.00840491  0.09433047  0.78096281     0.03310
C370        C  0.50322914  0.05290104  0.77102017    -0.10780
H371        H  0.07970381  0.03096592  0.80891512     0.08910
H372        H  0.04420295  0.14273173  0.80768741     0.06440
H373        H  0.47794265  0.03850205  0.75898224     0.06280
C374        C  0.17602378  0.39333861  0.70136923     0.03320
C375        C  0.13527687  0.38875058  0.70727651    -0.12830
C376        C  0.11520879  0.38691691  0.74482444     0.00820
C377        C  0.13590251  0.38520557  0.77534002    -0.11360
C378        C  0.17474173  0.39980713  0.77310899     0.03310
C379        C  0.19556967  0.40265796  0.73558768    -0.10780
H380        H  0.11935846  0.38764896  0.68344287     0.08910
H381        H  0.12033642  0.37995970  0.80373850     0.06440
H382        H  0.22590499  0.41363229  0.73343705     0.06280
O383        O  0.16133208  0.43514706  0.83509802    -0.72750
O384        O  0.17031923  0.46706857  0.94754009    -0.73730
O385        O  0.19001954  0.50270859  0.87858718    -0.62350
O386        O  0.14009463  0.40069550  0.90357875    -0.70760
O387        O  0.19744084  0.37926703  0.89476683    -0.70320
O388        O  0.24902488  0.48625372  0.87061634    -0.61570
O389        O  0.22747997  0.44605007  0.94078882    -0.74080
O390        O  0.21893500  0.41467785  0.82301603    -0.72860
Cu391      Cu  0.16397353  0.45227986  0.89118358     1.04560
Cu392      Cu  0.22569139  0.43096927  0.88160416     1.04330
C393        C  0.18691393  0.41824182  0.81152299     0.93440
C394        C  0.19880070  0.45972497  0.96281336     0.92580
C395        C  0.22629334  0.51161964  0.87039686     0.84730
C396        C  0.16093842  0.37463024  0.90589098     0.91000
O397        O  0.06360697  0.07952695  0.57945054    -0.72750
O398        O  0.03634642  0.46734704  0.59140260    -0.73730
O399        O  0.99836479  0.03411769  0.60868016    -0.62350
O400        O  0.10124987  0.51402648  0.56153697    -0.70760
O401        O  0.12074758  0.52431275  0.62011366    -0.70320
O402        O  0.01355558  0.04682885  0.66867342    -0.61570
O403        O  0.05425450  0.47658213  0.65041296    -0.74080
O404        O  0.08383190  0.09430060  0.63733509    -0.72860
Cu405      Cu  0.04910849  0.52358198  0.58378661     1.04560
Cu406      Cu  0.06860778  0.03612339  0.64670100     1.04330
C407        C  0.07991440  0.10430414  0.60434393     0.93440
C408        C  0.04209409  0.45338144  0.62158572     0.92580
C409        C  0.98896776  0.04467637  0.64479914     0.84730
C410        C  0.12696793  0.51412476  0.58329107     0.91000
O411        O  0.04360203  0.16521369  0.92090862    -0.72750
O412        O  0.16223403  0.15868001  0.89087514    -0.73730
O413        O  0.09319600  0.14122088  0.85264303    -0.62350
O414        O  0.11172870  0.18470257  0.96300061    -0.70760
O415        O  0.10290320  0.12349127  0.97541222    -0.70320
O416        O  0.08497712  0.08121737  0.86938611    -0.61570
O417        O  0.14958188  0.09903946  0.90797390    -0.74080
O418        O  0.03735358  0.10520134  0.93667837    -0.72860
Cu419      Cu  0.10335429  0.16505026  0.90643565     1.04560
Cu420      Cu  0.09371948  0.10071269  0.92302148     1.04330
C421        C  0.02188213  0.13488280  0.93226085     0.93440
C422        C  0.17349207  0.12569496  0.89301095     0.92580
C423        C  0.08388079  0.10442929  0.84475749     0.84730
C424        C  0.10986600  0.15977650  0.98696223     0.91000
C425        C  0.10553243  0.21391130  0.59058247     0.03320
C426        C  0.09546391  0.17994880  0.61078797    -0.12830
C427        C  0.09719432  0.14234690  0.59026490     0.00820
C428        C  0.11102762  0.13942840  0.55073880    -0.11360
C429        C  0.11269755  0.17052154  0.52925850     0.03310
C430        C  0.11122631  0.20820760  0.54938854    -0.10780
H431        H  0.08515630  0.18255265  0.64166174     0.08910
H432        H  0.11527467  0.11070536  0.53559436     0.06440
H433        H  0.11413105  0.23258998  0.53329539     0.06280
C434        C  0.19627559  0.46624004  0.50643525     0.03320
C435        C  0.17298135  0.49419121  0.52588234    -0.12830
C436        C  0.16132374  0.49629686  0.56604907     0.00820
C437        C  0.17443992  0.47197780  0.58779896    -0.11360
C438        C  0.19766506  0.44368704  0.57017475     0.03310
C439        C  0.20940378  0.44120305  0.52901811    -0.10780
H440        H  0.16108998  0.51242580  0.50922571     0.08910
H441        H  0.16481139  0.47388978  0.61889251     0.06440
H442        H  0.22653834  0.41905776  0.51427895     0.06280
C443        C  0.28287527  0.11337673  0.87184536     0.03320
C444        C  0.27652487  0.07216621  0.86700755    -0.12830
C445        C  0.23945129  0.05257739  0.86286750     0.00820
C446        C  0.21030075  0.07447482  0.85949675    -0.11360
C447        C  0.21211884  0.11346849  0.87523149     0.03310
C448        C  0.24906057  0.13366628  0.88026929    -0.10780
H449        H  0.29960101  0.05558079  0.86762765     0.08910
H450        H  0.18260000  0.05944579  0.85249134     0.06440
H451        H  0.25096298  0.16406614  0.89220283     0.06280
O452        O  0.41406804  0.34052478  0.99329427    -0.72750
O453        O  0.02629414  0.33437229  0.96457652    -0.73730
O454        O  0.46073877  0.31608062  0.92585229    -0.62350
O455        O  0.97906114  0.35833417  0.53158634    -0.70760
O456        O  0.97080265  0.29832579  0.54832271    -0.70320
O457        O  0.45191460  0.25486824  0.93826225    -0.61570
O458        O  0.02004917  0.27435914  0.98034415    -0.74080
O459        O  0.40141854  0.28088377  0.01039202    -0.72860
Cu460      Cu  0.96992873  0.33885643  0.97824134     1.04560
Cu461      Cu  0.46029769  0.27451795  0.99482505     1.04330
C462        C  0.39015897  0.31386776  0.00825576     0.93440
C463        C  0.04176705  0.30469138  0.96899210     0.92580
C464        C  0.45377625  0.27979563  0.91430196     0.84730
C465        C  0.98007801  0.33511974  0.55623548     0.91000
C466        C  0.03396204  0.40993534  0.62113263     0.03320
C467        C  0.00290143  0.39116268  0.60205332    -0.12830
C468        C  0.99879962  0.35085525  0.59068396     0.00820
C469        C  0.02326023  0.32807090  0.60216805    -0.11360
C470        C  0.05518361  0.34520236  0.62042042     0.03310
C471        C  0.06035886  0.38662745  0.63036716    -0.10780
H472        H  0.98413667  0.40858663  0.59207114     0.08910
H473        H  0.01944962  0.29680705  0.59360084     0.06440
H474        H  0.08559063  0.40101779  0.64251404     0.06280
C475        C  0.08513917  0.30772460  0.96073037     0.03320
C476        C  0.10867742  0.29440447  0.98444525    -0.12830
C477        C  0.14941459  0.30661485  0.98066959     0.00820
C478        C  0.16570941  0.33040065  0.95218967    -0.11360
C479        C  0.14343396  0.34235392  0.92770892     0.03310
C480        C  0.10343521  0.33111318  0.93198094    -0.10780
H481        H  0.09492723  0.27658303  0.00646192     0.08910
H482        H  0.19635299  0.34072189  0.94967377     0.06440
H483        H  0.08613529  0.34269001  0.91427172     0.06280
C484        C  0.45790855  0.22558331  0.81086443     0.03320
C485        C  0.45189968  0.23129682  0.85205662    -0.12830
C486        C  0.45058341  0.26902423  0.87213736     0.00820
C487        C  0.45257628  0.30014176  0.85060470    -0.11360
C488        C  0.46652447  0.29715941  0.81110562     0.03310
C489        C  0.46820798  0.25952418  0.79064118    -0.10780
H490        H  0.44860020  0.20688657  0.86818406     0.08910
H491        H  0.44841925  0.32890352  0.86570057     0.06440
H492        H  0.47862428  0.25686746  0.75979162     0.06280
C493        C  0.36747528  0.47316894  0.89480514     0.03320
C494        C  0.35431534  0.99819129  0.87221597    -0.12830
C495        C  0.36603637  0.99568419  0.83105452     0.00820
C496        C  0.38930248  0.46741761  0.81344333    -0.11360
C497        C  0.40242961  0.44311698  0.83520348     0.03310
C498        C  0.39076842  0.44521919  0.87536585    -0.10780
H499        H  0.33718754  0.02034808  0.88695466     0.08910
H500        H  0.39894506  0.46551603  0.78235205     0.06440
H501        H  0.40266668  0.42699212  0.89202484     0.06280
C502        C  0.28128047  0.32618185  0.52883847     0.03320
C503        C  0.28759606  0.36738338  0.53381669    -0.12830
C504        C  0.32462785  0.38696827  0.53807416     0.00820
C505        C  0.35378568  0.36507333  0.54141170    -0.11360
C506        C  0.35197054  0.32607772  0.52565999     0.03310
C507        C  0.31506211  0.30588366  0.52050177    -0.10780
H508        H  0.26451790  0.38398586  0.53325132     0.08910
H509        H  0.38147538  0.38010841  0.54844333     0.06440
H510        H  0.31313932  0.27548060  0.50856540     0.06280
C511        C  0.47223650  0.15944660  0.72278229     0.03320
C512        C  0.48185104  0.12494403  0.73282175    -0.12830
C513        C  0.48248582  0.12151317  0.77222204     0.00820
C514        C  0.47156089  0.15350469  0.80031036    -0.11360
C515        C  0.45646725  0.18509439  0.78861748     0.03310
C516        C  0.44798045  0.18051074  0.75040235    -0.10780
H517        H  0.99942804  0.10761130  0.71110359     0.08910
H518        H  0.47888346  0.15563160  0.82941984     0.06440
H519        H  0.43539713  0.20360429  0.74110661     0.06280
C520        C  0.09123336  0.28007160  0.67867230     0.03320
C521        C  0.11547743  0.25898423  0.65106190    -0.12830
C522        C  0.10699062  0.25439513  0.61284583     0.00820
C523        C  0.09197596  0.28601852  0.60113354    -0.11360
C524        C  0.08105504  0.31801139  0.62921319     0.03310
C525        C  0.08163802  0.31457446  0.66861873    -0.10780
H526        H  0.12806085  0.23590170  0.66037402     0.08910
H527        H  0.08470103  0.28392812  0.57200699     0.06440
H528        H  0.06404196  0.33190377  0.69031595     0.06280
C529        C  0.00480230  0.18622828  0.70575427    -0.05930
C530        C  0.03863392  0.19333377  0.72414199    -0.17060
C531        C  0.06518232  0.22663083  0.71973952     0.11260
C532        C  0.05865841  0.25331344  0.69571364    -0.05860
C533        C  0.02482670  0.24621132  0.67732658    -0.17090
C534        C  0.99827311  0.21291784  0.68173592     0.11300
S535        S  0.10760629  0.23487459  0.74444640    -0.32060
S536        S  0.45584026  0.20468781  0.65704386    -0.32060
H537        H  0.46252869  0.23971496  0.64010759     0.29300
H538        H  0.10091167  0.19985728  0.76139974     0.29300
H539        H  0.04331415  0.17391171  0.74394962     0.19890
H540        H  0.02015218  0.26563257  0.65751371     0.19900
C541        C  0.27983982  0.44935794  0.66263255    -0.05930
C542        C  0.30128542  0.43701390  0.68806439    -0.17060
C543        C  0.30159180  0.45510507  0.72624992     0.11260
C544        C  0.28401639  0.48980485  0.73833964    -0.05860
C545        C  0.26258147  0.50215242  0.71289930    -0.17090
C546        C  0.26231316  0.48408476  0.67470400     0.11300
S547        S  0.32042171  0.43003246  0.75962206    -0.32060
S548        S  0.24362086  0.50921950  0.64128603    -0.32060
H549        H  0.22321148  0.53443986  0.66926546     0.29300
H550        H  0.34086389  0.40487023  0.73160778     0.29300
H551        H  0.31331193  0.40974276  0.67950752     0.19890
H552        H  0.25050311  0.02939869  0.72147057     0.19900
C553        C  0.24421209  0.22373027  0.97042928    -0.05930
C554        C  0.26685066  0.19877689  0.98181822    -0.17060
C555        C  0.30448718  0.19575278  0.96370493     0.11260
C556        C  0.31936340  0.21579544  0.93084218    -0.05860
C557        C  0.29672058  0.24074345  0.91944968    -0.17090
C558        C  0.25907953  0.24375606  0.93755456     0.11300
S559        S  0.33318198  0.16818226  0.98540686    -0.32060
S560        S  0.23036179  0.27127881  0.91582383    -0.32060
H561        H  0.26094524  0.29196409  0.89342832     0.29300
H562        H  0.30258173  0.14747391  0.00776116     0.29300
H563        H  0.25635008  0.18501074  0.00796173     0.19890
H564        H  0.30722253  0.25451298  0.89330864     0.19900
C565        C  0.21606020  0.74080990  0.50277817     0.03320
C566        C  0.18273040  0.75313383  0.49414308    -0.12830
C567        C  0.17771039  0.79277472  0.50204919     0.00820
C568        C  0.20835630  0.81907962  0.01736933    -0.11360
C569        C  0.24037327  0.80431964  0.02826344     0.03310
C570        C  0.23567478  0.76447719  0.03059519    -0.10780
H571        H  0.16589725  0.73441363  0.47398178     0.08910
H572        H  0.20888907  0.84999064  0.01684449     0.06440
H573        H  0.25738119  0.75254810  0.04253228     0.06280
C574        C  0.34645299  0.69893958  0.40027923     0.03320
C575        C  0.37984011  0.68685044  0.40915000    -0.12830
C576        C  0.38585880  0.64749812  0.39966408     0.00820
C577        C  0.35499825  0.62107346  0.38433391    -0.11360
C578        C  0.32291834  0.63577546  0.37351381     0.03310
C579        C  0.32746917  0.67566889  0.37143808    -0.10780
H580        H  0.39553994  0.70493512  0.43075541     0.08910
H581        H  0.35459922  0.59014971  0.38467909     0.06440
H582        H  0.30575700  0.68759643  0.35951297     0.06280
C583        C  0.30222111  0.52174555  0.26549784     0.03320
C584        C  0.32648118  0.54958639  0.24530089    -0.12830
C585        C  0.36565243  0.54609615  0.24056945     0.00820
C586        C  0.37961664  0.53436006  0.27272346    -0.11360
C587        C  0.35312158  0.51943959  0.30402529     0.03310
C588        C  0.31393482  0.51248660  0.29910558    -0.10780
H589        H  0.31552859  0.56182886  0.22300711     0.08910
H590        H  0.40996516  0.53255241  0.27183282     0.06440
H591        H  0.29536035  0.99140344  0.31523895     0.06280
C592        C  0.26148538  0.91822018  0.13584166     0.03320
C593        C  0.24979860  0.92751255  0.10223655    -0.12830
C594        C  0.21064264  0.92039555  0.09719792     0.00820
C595        C  0.18412872  0.90537666  0.12843943    -0.11360
C596        C  0.19808070  0.89366264  0.16061168     0.03310
C597        C  0.23727000  0.89026433  0.15592301    -0.10780
H598        H  0.26831364  0.94869270  0.08618128     0.08910
H599        H  0.15376690  0.90709940  0.12928107     0.06440
H600        H  0.24822185  0.87800072  0.17820278     0.06280
O601        O  0.33622605  0.99362135  0.46044979    -0.72750
O602        O  0.34473985  0.52487482  0.07821654    -0.73730
O603        O  0.36607401  0.56040772  0.50662597    -0.62350
O604        O  0.31488672  0.95326446  0.53052720    -0.70760
O605        O  0.37395899  0.93695736  0.52249430    -0.70320
O606        O  0.42350317  0.53914264  0.49769643    -0.61570
O607        O  0.40234252  0.50440601  0.06612870    -0.74080
O608        O  0.39346250  0.97275241  0.45362585    -0.72860
Cu609      Cu  0.33803613  0.50860861  0.51966016     1.04560
Cu610      Cu  0.39981423  0.98747858  0.50998697     1.04330
C611        C  0.36493566  0.98003892  0.43838772     0.93440
C612        C  0.37676350  0.52131267  0.08970638     0.92580
C613        C  0.40256732  0.56516576  0.49549869     0.84730
C614        C  0.33769824  0.92795666  0.53067268     0.91000
C615        C  0.38767136  0.54624395  0.19985884     0.03320
C616        C  0.36811885  0.53692006  0.16564391    -0.12830
C617        C  0.38894384  0.53975217  0.12811760     0.00820
C618        C  0.42778600  0.55434613  0.12587949    -0.11360
C619        C  0.44848095  0.55264926  0.15639832     0.03310
C620        C  0.42841676  0.55082304  0.19394539    -0.10780
H621        H  0.33778161  0.52595431  0.16780053     0.08910
H622        H  0.44335183  0.55957984  0.09747785     0.06440
H623        H  0.44434121  0.55191856  0.21777205     0.06280
C624        C  0.47822506  0.63214483  0.44071358     0.03320
C625        C  0.45464983  0.64558720  0.41712228    -0.12830
C626        C  0.41389072  0.63350691  0.42106010     0.00820
C627        C  0.39763574  0.60966957  0.44950955    -0.11360
C628        C  0.41997851  0.59756411  0.47382673     0.03310
C629        C  0.45997377  0.60876203  0.46947099    -0.10780
H630        H  0.46838044  0.66337447  0.39506424     0.08910
H631        H  0.36698131  0.59939120  0.45208752     0.06440
H632        H  0.47730995  0.59711204  0.48708977     0.06280
O633        O  0.00942987  0.96299009  0.25081708    -0.72750
O634        O  0.47989385  0.84522989  0.26386856    -0.73730
O635        O  0.44296479  0.91522219  0.28108999    -0.62350
O636        O  0.05017462  0.89276930  0.23256283    -0.70760
O637        O  0.06534517  0.90549680  0.29256087    -0.70320
O638        O  0.46244988  0.92548616  0.33967118    -0.61570
O639        O  0.50012624  0.85998823  0.32174744    -0.74080
O640        O  0.02731880  0.97224646  0.30983525    -0.72860
Cu641      Cu  0.49509531  0.90342967  0.25451783     1.04560
Cu642      Cu  0.01460873  0.91597897  0.31743295     1.04330
C643        C  0.02155179  0.98620695  0.27965374     0.93440
C644        C  0.48381455  0.83520921  0.29685297     0.92580
C645        C  0.43673897  0.92540611  0.31791325     0.84730
C646        C  0.07476349  0.89495334  0.25644326     0.91000
C647        C  0.02963874  0.52966868  0.28011389     0.03320
C648        C  0.06074443  0.54848495  0.29909694    -0.12830
C649        C  0.06480890  0.58879441  0.31048006     0.00820
C650        C  0.04021880  0.61153946  0.29913840    -0.11330
C651        C  0.00827626  0.59436773  0.28093625     0.03310
C652        C  0.50316172  0.55294021  0.27096497    -0.10780
H653        H  0.07958544  0.53108750  0.30900066     0.08910
H654        H  0.04396973  0.64279848  0.30774902     0.06440
H655        H  0.47792704  0.53851533  0.25885055     0.06280
C656        C  0.17604279  0.89351043  0.20131657     0.03320
C657        C  0.13529182  0.88889979  0.20722567    -0.12830
C658        C  0.11522425  0.88709857  0.24478059     0.00820
C659        C  0.13593350  0.88547492  0.27531199    -0.11360
C660        C  0.17478287  0.90005828  0.27305927     0.03310
C661        C  0.19559499  0.90286483  0.23553080    -0.10780
H662        H  0.11936772  0.88775311  0.18338430     0.08910
H663        H  0.12037710  0.88024878  0.30371855     0.06440
H664        H  0.22593005  0.91383029  0.23337482     0.06280
O665        O  0.16141967  0.93528069  0.33510581    -0.72750
O666        O  0.17033561  0.96684858  0.44757565    -0.73730
O667        O  0.18997505  0.00277369  0.37880616    -0.62350
O668        O  0.14033913  0.90049181  0.40337336    -0.70760
O669        O  0.19776399  0.87923145  0.39445807    -0.70320
O670        O  0.24903823  0.98646286  0.37074143    -0.61570
O671        O  0.22757747  0.94599858  0.44076810    -0.74080
O672        O  0.21907440  0.91493447  0.32290205    -0.72860
Cu673      Cu  0.16404932  0.95221892  0.39120541     1.04560
Cu674      Cu  0.22583987  0.93107560  0.38152675     1.04330
C675        C  0.18700790  0.91845575  0.31146907     0.93440
C676        C  0.19885307  0.95956604  0.46282455     0.92580
C677        C  0.22623949  0.01178961  0.37062456     0.84730
C678        C  0.16125720  0.87443053  0.40551297     0.91000
O679        O  0.06350737  0.57958456  0.07937310    -0.72750
O680        O  0.03628284  0.96735746  0.09138017    -0.73730
O681        O  0.99829481  0.53412358  0.10861607    -0.62350
O682        O  0.10114710  0.01409351  0.06150291    -0.70760
O683        O  0.12064751  0.02442317  0.12008027    -0.70320
O684        O  0.01349259  0.54688259  0.16860590    -0.61570
O685        O  0.05419693  0.97664501  0.15038859    -0.74080
O686        O  0.08373557  0.59438427  0.13725429    -0.72860
Cu687      Cu  0.04900114  0.02360917  0.08373785     1.04560
Cu688      Cu  0.06854583  0.53620523  0.14664983     1.04330
C689        C  0.07981577  0.60437639  0.10425758     0.93440
C690        C  0.04205367  0.95341489  0.12156986     0.92580
C691        C  0.98890539  0.54471182  0.14472915     0.84730
C692        C  0.12687069  0.01423177  0.08326034     0.91000
O693        O  0.04331098  0.66536253  0.42097165    -0.72750
O694        O  0.16188060  0.65872549  0.39110341    -0.73730
O695        O  0.09294292  0.64132557  0.35275333    -0.62350
O696        O  0.11125794  0.68467159  0.46315940    -0.70760
O697        O  0.10248279  0.62346700  0.47556843    -0.70320
O698        O  0.08466289  0.58132103  0.36950435    -0.61570
O699        O  0.14921767  0.59906594  0.40814770    -0.74080
O700        O  0.03699803  0.60534729  0.43675427    -0.72860
Cu701      Cu  0.10301608  0.66511472  0.40657426     1.04560
Cu702      Cu  0.09334785  0.60076989  0.42314843     1.04330
C703        C  0.02157062  0.63506549  0.43235057     0.93440
C704        C  0.17314059  0.62574656  0.39323939     0.92580
C705        C  0.08363047  0.60453447  0.34486127     0.84730
C706        C  0.10942646  0.65974962  0.48711779     0.91000
C707        C  0.10573426  0.71397698  0.09041133     0.03320
C708        C  0.09544768  0.68002890  0.11062349    -0.12830
C709        C  0.09715168  0.64240139  0.09014984     0.00820
C710        C  0.11110420  0.63943162  0.05065291    -0.11360
C711        C  0.11307222  0.67054998  0.02912754     0.03310
C712        C  0.11173639  0.70827302  0.04921725    -0.10780
H713        H  0.08502271  0.68267291  0.14147187     0.08910
H714        H  0.11527684  0.61067510  0.03555220     0.06440
H715        H  0.11501191  0.73268540  0.03309551     0.06280
C716        C  0.19619221  0.96640243  0.00641524     0.03320
C717        C  0.17289531  0.99434599  0.02586154    -0.12830
C718        C  0.16124301  0.99644453  0.06602620     0.00820
C719        C  0.17438015  0.97214421  0.08777836    -0.11360
C720        C  0.19763449  0.94388319  0.07015774     0.03310
C721        C  0.20934815  0.94137994  0.02899671    -0.10780
H722        H  0.16098827  0.01257028  0.00920687     0.08910
H723        H  0.16474224  0.97403957  0.11887026     0.06440
H724        H  0.22647873  0.91922717  0.01425321     0.06280
C725        C  0.28259480  0.61374672  0.37222838     0.03320
C726        C  0.27637707  0.57251474  0.36734919    -0.12830
C727        C  0.23933893  0.55280672  0.36318785     0.00820
C728        C  0.21010577  0.57460250  0.35982866    -0.11360
C729        C  0.21181101  0.61359036  0.37554381     0.03310
C730        C  0.24869433  0.63390213  0.38060242    -0.10780
H731        H  0.29951815  0.55599974  0.36796119     0.08910
H732        H  0.18244133  0.55949793  0.35279982     0.06440
H733        H  0.25046929  0.66429205  0.39253006     0.06280
O734        O  0.41448596  0.84050525  0.49298256    -0.72750
O735        O  0.02668126  0.83433951  0.46429424    -0.73730
O736        O  0.46109723  0.81603545  0.42558624    -0.62350
O737        O  0.97866967  0.85834639  0.03187413    -0.70760
O738        O  0.97045457  0.79834238  0.04861531    -0.70320
O739        O  0.45217857  0.75482018  0.43800475    -0.61570
O740        O  0.02038810  0.77431503  0.48004553    -0.74080
O741        O  0.40179460  0.78086460  0.51009159    -0.72860
Cu742      Cu  0.97032165  0.83882813  0.47795120     1.04560
Cu743      Cu  0.46063594  0.77448356  0.49453753     1.04330
C744        C  0.39056606  0.81385299  0.50793172     0.93440
C745        C  0.04212769  0.80464170  0.46870339     0.92580
C746        C  0.45399665  0.77975781  0.41406617     0.84730
C747        C  0.97977148  0.83513370  0.05650056     0.91000
C748        C  0.03394736  0.90996240  0.12114480     0.03320
C749        C  0.00279490  0.89117687  0.10221248    -0.12830
C750        C  0.99867183  0.85086618  0.09084275     0.00820
C751        C  0.02325059  0.82809082  0.10216325    -0.11360
C752        C  0.05524104  0.84522985  0.12031171     0.03310
C753        C  0.06041743  0.88665906  0.13025550    -0.10780
H754        H  0.98395832  0.90859755  0.09233519     0.08910
H755        H  0.01945135  0.79683053  0.09357104     0.06440
H756        H  0.08569887  0.90105548  0.14231043     0.06280
C757        C  0.08549304  0.80761660  0.46039739     0.03320
C758        C  0.10903061  0.79446074  0.48421858    -0.12830
C759        C  0.14981010  0.80641780  0.48020800     0.00820
C760        C  0.16616189  0.82977551  0.45136837    -0.11360
C761        C  0.14381188  0.84195299  0.42709392     0.03310
C762        C  0.10378544  0.83085922  0.43152794    -0.10780
H763        H  0.09525563  0.77700804  0.50652622     0.08910
H764        H  0.19688140  0.83975161  0.44853931     0.06440
H765        H  0.08646452  0.84248494  0.41387623     0.06280
C766        C  0.45774521  0.72557925  0.31067370     0.03320
C767        C  0.45169754  0.73126666  0.35186494    -0.12830
C768        C  0.45057798  0.76900532  0.37195336     0.00820
C769        C  0.45255448  0.80013968  0.35045203    -0.11360
C770        C  0.46646313  0.79717297  0.31094804     0.03310
C771        C  0.46811072  0.75953570  0.29046751    -0.10780
H772        H  0.44819703  0.70682931  0.36798686     0.08910
H773        H  0.44844044  0.82889967  0.36557899     0.06440
H774        H  0.47854619  0.75689025  0.25962199     0.06280
C775        C  0.36750609  0.97336843  0.39478268     0.03320
C776        C  0.35441469  0.49842848  0.37220749    -0.12830
C777        C  0.36610859  0.49590641  0.33104374     0.00820
C778        C  0.38928966  0.96759412  0.31341144    -0.11360
C779        C  0.40239448  0.94325994  0.33515674     0.03310
C780        C  0.39075207  0.94538012  0.37532668    -0.10780
H781        H  0.33733479  0.52063077  0.38694401     0.08910
H782        H  0.39890908  0.96567783  0.28231607     0.06440
H783        H  0.40262935  0.92713169  0.39198047     0.06280
C784        C  0.28076879  0.82618262  0.02939261     0.03320
C785        C  0.28712234  0.86739288  0.03421531    -0.12830
C786        C  0.32419393  0.88698165  0.03836175     0.00820
C787        C  0.35333796  0.86508639  0.04175481    -0.11360
C788        C  0.35152202  0.82609035  0.02602759     0.03310
C789        C  0.31458193  0.80589094  0.02098302    -0.10780
H790        H  0.26405085  0.88397871  0.03357884     0.08910
H791        H  0.38103589  0.88011793  0.04876594     0.06440
H792        H  0.31267992  0.77548930  0.00905413     0.06280
C793        C  0.47232526  0.65948714  0.22261275     0.03320
C794        C  0.48191900  0.62499615  0.23269213    -0.12830
C795        C  0.48238422  0.62152872  0.27211236     0.00820
C796        C  0.47134744  0.65348886  0.30018493    -0.11360
C797        C  0.45633116  0.68509382  0.28842351     0.03310
C798        C  0.44799399  0.68053677  0.25015911    -0.10780
H799        H  0.99958139  0.60769493  0.21103006     0.08910
H800        H  0.47851761  0.65557640  0.32935901     0.06440
H801        H  0.43545734  0.70363465  0.24081586     0.06280
C802        C  0.09136464  0.78009927  0.17851066     0.03320
C803        C  0.11562161  0.75902878  0.15089864    -0.12830
C804        C  0.10716152  0.75445929  0.11267356     0.00820
C805        C  0.09208575  0.78605753  0.10097659    -0.11360
C806        C  0.08115078  0.81804454  0.12906488     0.03310
C807        C  0.08176485  0.81460709  0.16846776    -0.10780
H808        H  0.12819172  0.73593085  0.16020238     0.08910
H809        H  0.08478501  0.78394250  0.07185955     0.06440
H810        H  0.06418696  0.83194342  0.19018113     0.06280
C811        C  0.00490443  0.68626704  0.20561013    -0.05930
C812        C  0.03871296  0.69338712  0.22403416    -0.17060
C813        C  0.06529000  0.72666061  0.21959402     0.11260
C814        C  0.05878879  0.75332675  0.19553630    -0.05860
C815        C  0.02497179  0.74621150  0.17712606    -0.17090
C816        C  0.99841062  0.71292569  0.18154286     0.11300
S817        S  0.10771464  0.73489515  0.24429835    -0.32060
S818        S  0.45601608  0.70466220  0.15679004    -0.32060
H819        H  0.46273203  0.73966447  0.13980960     0.29300
H820        H  0.10100593  0.69988181  0.26125961     0.29300
H821        H  0.04335614  0.67398986  0.24388540     0.19890
H822        H  0.02031616  0.76561434  0.15728814     0.19900
C823        C  0.27969478  0.94976894  0.16285543    -0.05930
C824        C  0.30115910  0.93742170  0.18826877    -0.17060
C825        C  0.30144736  0.95547718  0.22646688     0.11260
C826        C  0.28388957  0.99018142  0.23857448    -0.05860
C827        C  0.26241317  0.00252291  0.21316925    -0.17090
C828        C  0.26209756  0.98445150  0.17497787     0.11300
S829        S  0.32020744  0.93035100  0.25984288    -0.32060
S830        S  0.24322264  0.00952834  0.14164108    -0.32060
H831        H  0.22277686  0.03466515  0.16968053     0.29300
H832        H  0.34063211  0.90517074  0.23183235     0.29300
H833        H  0.31322355  0.91017404  0.17968253     0.19890
H834        H  0.25037789  0.52977612  0.22176223     0.19900
C835        C  0.24298770  0.72260604  0.47104861    -0.05930
C836        C  0.26598364  0.69802974  0.48253174    -0.17060
C837        C  0.30381203  0.69558856  0.46456457     0.11260
C838        C  0.31861299  0.71597504  0.43188987    -0.05860
C839        C  0.29564532  0.74066623  0.42058661    -0.17090
C840        C  0.25772933  0.74241745  0.43802964     0.11300
S841        S  0.33295454  0.66864449  0.48642660    -0.32060
S842        S  0.22956493  0.76863252  0.41454961    -0.32060
H843        H  0.19935821  0.73769441  0.41221161     0.29300
H844        H  0.30254246  0.64738458  0.50848218     0.29300
H845        H  0.25568115  0.68434081  0.50875571     0.19890
H846        H  0.30581085  0.75495808  0.39466401     0.19900
C847        C  0.21653823  0.74112478  0.00193039     0.03320
C848        C  0.18323864  0.75328378  0.99295811    -0.12830
C849        C  0.17739096  0.79268818  0.00218635     0.00820
C850        C  0.20905509  0.81912053  0.51647975    -0.11360
C851        C  0.24090724  0.80434960  0.52765470     0.03310
C852        C  0.23602760  0.76459698  0.53058468    -0.10780
H853        H  0.16749412  0.73515144  0.97142396     0.08910
H854        H  0.20993172  0.84995418  0.51526733     0.06440
H855        H  0.25782449  0.75272587  0.54244200     0.06280
C856        C  0.34707177  0.69843426  0.89934888     0.03320
C857        C  0.38037394  0.68628840  0.90833340    -0.12830
C858        C  0.38625031  0.64689201  0.89907851     0.00820
C859        C  0.35529955  0.62049283  0.88387475    -0.11360
C860        C  0.32327981  0.63524507  0.87297669     0.03310
C861        C  0.32796901  0.67508861  0.87065623    -0.10780
H862        H  0.39609996  0.70441807  0.92988486     0.08910
H863        H  0.35477703  0.58958131  0.88438810     0.06440
H864        H  0.30626500  0.68701239  0.85870998     0.06280
C865        C  0.30223241  0.52135920  0.76534378     0.03320
C866        C  0.32646200  0.54929645  0.74524931    -0.12830
C867        C  0.36564981  0.54589669  0.74057666     0.00820
C868        C  0.37958573  0.53418033  0.77275866    -0.11360
C869        C  0.35306108  0.51917640  0.80400238     0.03310
C870        C  0.31390525  0.51208030  0.79896212    -0.10780
H871        H  0.31551896  0.56156053  0.72296467     0.08910
H872        H  0.40994345  0.53245444  0.77193063     0.06440
H873        H  0.29535608  0.99090610  0.81502896     0.06280
C874        C  0.26148788  0.91778897  0.63572225     0.03320
C875        C  0.24978605  0.92704318  0.60210791    -0.12830
C876        C  0.21059746  0.92013336  0.59719778     0.00820
C877        C  0.18408730  0.90523240  0.62850370    -0.11360
C878        C  0.19803728  0.89348689  0.66066100     0.03310
C879        C  0.23720459  0.88997563  0.65593681    -0.10780
H880        H  0.26837032  0.94808582  0.58593742     0.08910
H881        H  0.15373753  0.90705327  0.62939359     0.06440
H882        H  0.24814540  0.87773108  0.67823669     0.06280
O883        O  0.33618095  0.99351855  0.96043442    -0.72750
O884        O  0.34481052  0.52481378  0.57826060    -0.73730
O885        O  0.36622659  0.56029440  0.00647467    -0.62350
O886        O  0.31463833  0.95330243  0.03060001    -0.70760
O887        O  0.37364190  0.93684411  0.02263374    -0.70320
O888        O  0.42357312  0.53886507  0.99765235    -0.61570
O889        O  0.40249340  0.50452544  0.56607533    -0.74080
O890        O  0.39333855  0.97249423  0.95368364    -0.72860
Cu891      Cu  0.33798115  0.50859059  0.01962473     1.04560
Cu892      Cu  0.39968595  0.98727619  0.01004034     1.04330
C893        C  0.36486016  0.97984376  0.93840923     0.93440
C894        C  0.37687698  0.52132248  0.58970531     0.92580
C895        C  0.40272809  0.56493218  0.99534880     0.84730
C896        C  0.33736765  0.92793597  0.03082394     0.91000
C897        C  0.38771639  0.54610173  0.69988568     0.03320
C898        C  0.36819766  0.53680705  0.66564692    -0.12830
C899        C  0.38904218  0.53970044  0.62814191     0.00820
C900        C  0.42787733  0.55432047  0.62594497    -0.11360
C901        C  0.44855755  0.55259316  0.65646859     0.03310
C902        C  0.42846611  0.55070211  0.69400236    -0.10780
H903        H  0.33786833  0.52581585  0.66776350     0.08910
H904        H  0.44345652  0.55960767  0.59756291     0.06440
H905        H  0.44437050  0.55176072  0.71783801     0.06280
C906        C  0.47851938  0.63185384  0.94052491     0.03320
C907        C  0.45497765  0.64518398  0.91681951    -0.12830
C908        C  0.41424014  0.63297007  0.92059433     0.00820
C909        C  0.39795054  0.60917091  0.94906335    -0.11360
C910        C  0.42022853  0.59721402  0.97353901     0.03310
C911        C  0.46022582  0.60845831  0.96926881    -0.10780
H912        H  0.46872627  0.66301542  0.89481147     0.08910
H913        H  0.36730941  0.59883938  0.95157234     0.06440
H914        H  0.47752680  0.59687753  0.98697401     0.06280
O915        O  0.00945552  0.96291830  0.75086509    -0.72750
O916        O  0.47994076  0.84517030  0.76398844    -0.73730
O917        O  0.44301115  0.91512617  0.78115912    -0.62350
O918        O  0.05018002  0.89269340  0.73263347    -0.70760
O919        O  0.06538258  0.90543159  0.79262117    -0.70320
O920        O  0.46251059  0.92546446  0.83973716    -0.61570
O921        O  0.50016661  0.85997210  0.82186981    -0.74080
O922        O  0.02738205  0.97219821  0.80986781    -0.72860
Cu923      Cu  0.49512627  0.90335631  0.75459521     1.04560
Cu924      Cu  0.01466079  0.91594582  0.81750414     1.04330
C925        C  0.02160442  0.98614520  0.77968366     0.93440
C926        C  0.48385735  0.83517885  0.79698727     0.92580
C927        C  0.43678765  0.92532368  0.81797719     0.84730
C928        C  0.07477011  0.89485467  0.75650457     0.91000
C929        C  0.02971984  0.52960018  0.78011753     0.03320
C930        C  0.06087638  0.54838771  0.79904251    -0.12830
C931        C  0.06499645  0.58869867  0.81041394     0.00820
C932        C  0.04041241  0.61147241  0.79909970    -0.11330
C933        C  0.00841427  0.59433075  0.78096639     0.03310
C934        C  0.50323968  0.55290122  0.77102405    -0.10780
H935        H  0.07971779  0.53096860  0.80891459     0.08910
H936        H  0.04421144  0.64273297  0.80769030     0.06440
H937        H  0.47795321  0.53850104  0.75898832     0.06280
C938        C  0.17600825  0.89333463  0.70136744     0.03320
C939        C  0.13526152  0.88874841  0.70727647    -0.12830
C940        C  0.11519465  0.88691536  0.74482471     0.00820
C941        C  0.13588919  0.88520439  0.77533972    -0.11360
C942        C  0.17472880  0.89980498  0.77310722     0.03310
C943        C  0.19555573  0.90265408  0.73558503    -0.10780
H944        H  0.11934188  0.88764827  0.68344370     0.08910
H945        H  0.12032364  0.87995947  0.80373865     0.06440
H946        H  0.22589133  0.91362748  0.73343315     0.06280
O947        O  0.16132069  0.93514570  0.83509615    -0.72750
O948        O  0.17030807  0.96706742  0.94753806    -0.73730
O949        O  0.19000821  0.00270773  0.87858483    -0.62350
O950        O  0.14008440  0.90069376  0.90357698    -0.70760
O951        O  0.19743087  0.87926574  0.89476390    -0.70320
O952        O  0.24901353  0.98625300  0.87061470    -0.61570
O953        O  0.22746859  0.94604860  0.94078705    -0.74080
O954        O  0.21892373  0.91467691  0.82301334    -0.72860
Cu955      Cu  0.16396250  0.95227859  0.89118158     1.04560
Cu956      Cu  0.22568042  0.93096829  0.88160189     1.04330
C957        C  0.18690223  0.91824040  0.81152075     0.93440
C958        C  0.19878919  0.95972341  0.96281158     0.92580
C959        C  0.22628208  0.01161882  0.87039469     0.84730
C960        C  0.16092860  0.87462856  0.90588852     0.91000
O961        O  0.06363694  0.57953438  0.57944920    -0.72750
O962        O  0.03631675  0.96733998  0.59140662    -0.73730
O963        O  0.99839401  0.53412407  0.60867688    -0.62350
O964        O  0.10121883  0.01401799  0.56153753    -0.70760
O965        O  0.12071908  0.02430491  0.62011309    -0.70320
O966        O  0.01358236  0.54683279  0.66867116    -0.61570
O967        O  0.05422727  0.97657689  0.65041603    -0.74080
O968        O  0.08385854  0.59430709  0.63733540    -0.72860
Cu969      Cu  0.04907834  0.02357458  0.58378899     1.04560
Cu970      Cu  0.06863516  0.53612924  0.64669986     1.04330
C971        C  0.07994241  0.60431129  0.60434406     0.93440
C972        C  0.04206690  0.95337533  0.62158938     0.92580
C973        C  0.98899521  0.54468007  0.64479620     0.84730
C974        C  0.12693766  0.01411575  0.58329055     0.91000
O975        O  0.04361193  0.66521525  0.92090845    -0.72750
O976        O  0.16224411  0.65868084  0.89087698    -0.73730
O977        O  0.09320719  0.64122263  0.85264374    -0.62350
O978        O  0.11173681  0.68470310  0.96300133    -0.70760
O979        O  0.10291262  0.62349210  0.97541372    -0.70320
O980        O  0.08498726  0.58121919  0.86938728    -0.61570
O981        O  0.14959155  0.59904015  0.90797536    -0.74080
O982        O  0.03736333  0.60520329  0.93667925    -0.72860
Cu983      Cu  0.10336417  0.66505139  0.90643644     1.04560
Cu984      Cu  0.09372917  0.60071395  0.92302270     1.04330
C985        C  0.02189197  0.63488473  0.93226141     0.93440
C986        C  0.17350197  0.62569563  0.89301266     0.92580
C987        C  0.08389178  0.60443112  0.84475841     0.84730
C988        C  0.10987463  0.65977751  0.98696322     0.91000
C989        C  0.10554567  0.71391857  0.59058287     0.03320
C990        C  0.09548133  0.67995601  0.61078848    -0.12830
C991        C  0.09722161  0.64235481  0.59026667     0.00820
C992        C  0.11106019  0.63943728  0.55074168    -0.11360
C993        C  0.11272495  0.67052848  0.52926003     0.03310
C994        C  0.11124459  0.70821418  0.54938906    -0.10780
H995        H  0.08516884  0.68255900  0.64166123     0.08910
H996        H  0.11531294  0.61071509  0.53559830     0.06440
H997        H  0.11414530  0.73259574  0.53329543     0.06280
C998        C  0.19624627  0.96623213  0.50643355     0.03320
C999        C  0.17294983  0.99418140  0.52588076    -0.12830
C1000       C  0.16129240  0.99628649  0.56604749     0.00820
C1001       C  0.17440921  0.97196740  0.58779688    -0.11360
C1002       C  0.19763736  0.94367929  0.57017246     0.03310
C1003       C  0.20937671  0.94119654  0.52901612    -0.10780
H1004       H  0.16105750  0.01241544  0.50922431     0.08910
H1005       H  0.16478007  0.97387819  0.61889027     0.06440
H1006       H  0.22651402  0.91905324  0.51427721     0.06280
C1007       C  0.28288543  0.61337799  0.87184752     0.03320
C1008       C  0.27653537  0.57216750  0.86701074    -0.12830
C1009       C  0.23946212  0.55257830  0.86287002     0.00820
C1010       C  0.21031123  0.57447537  0.85949913    -0.11360
C1011       C  0.21212890  0.61346911  0.87523356     0.03310
C1012       C  0.24907051  0.63366727  0.88027096    -0.10780
H1013       H  0.29961144  0.55558238  0.86763234     0.08910
H1014       H  0.18261062  0.55944608  0.85249362     0.06440
H1015       H  0.25097262  0.66406728  0.89220383     0.06280
O1016       O  0.41405978  0.84052348  0.99329227    -0.72750
O1017       O  0.02628589  0.83436975  0.96457503    -0.73730
O1018       O  0.46073083  0.81607926  0.92585010    -0.62350
O1019       O  0.97904689  0.85832669  0.53158656    -0.70760
O1020       O  0.97078439  0.79831834  0.54832370    -0.70320
O1021       O  0.45190802  0.75486715  0.93826069    -0.61570
O1022       O  0.02004087  0.77435695  0.98034352    -0.74080
O1023       O  0.40140986  0.78088228  0.01038944    -0.72860
Cu1024     Cu  0.96992052  0.83885450  0.97823955     1.04560
Cu1025     Cu  0.46028931  0.77451610  0.99482348     1.04330
C1026       C  0.39015045  0.81386646  0.00825344     0.93440
C1027       C  0.04175879  0.80468888  0.96899084     0.92580
C1028       C  0.45376905  0.77979410  0.91430019     0.84730
C1029       C  0.98006193  0.83511190  0.55623593     0.91000
C1030       C  0.03393946  0.90992905  0.62113588     0.03320
C1031       C  0.00287971  0.89115339  0.60205717    -0.12830
C1032       C  0.99878385  0.85084668  0.59068406     0.00820
C1033       C  0.02325029  0.82806513  0.60216323    -0.11360
C1034       C  0.05517161  0.84519972  0.62041742     0.03310
C1035       C  0.06034051  0.88662449  0.63036799    -0.10780
H1036       H  0.98411117  0.90857514  0.59207759     0.08910
H1037       H  0.01944486  0.79680177  0.59359215     0.06440
H1038       H  0.08557076  0.90101747  0.64251652     0.06280
C1039       C  0.08513091  0.80772173  0.96072811     0.03320
C1040       C  0.10867000  0.79440037  0.98444137    -0.12830
C1041       C  0.14940728  0.80661059  0.98066453     0.00820
C1042       C  0.16570131  0.83039710  0.95218502    -0.11360
C1043       C  0.14342493  0.84235155  0.92770587     0.03310
C1044       C  0.10342621  0.83111094  0.93197893    -0.10780
H1045       H  0.09492050  0.77657807  0.00645768     0.08910
H1046       H  0.19634483  0.84071861  0.94966887     0.06440
H1047       H  0.08612575  0.84268844  0.91427076     0.06280
C1048       C  0.45790770  0.72558074  0.81086365     0.03320
C1049       C  0.45189745  0.73129454  0.85205569    -0.12830
C1050       C  0.45057600  0.76902157  0.87213594     0.00820
C1051       C  0.45256441  0.80013811  0.85060305    -0.11360
C1052       C  0.46651400  0.79715678  0.81110429     0.03310
C1053       C  0.46820319  0.75952187  0.79064022    -0.10780
H1054       H  0.44860139  0.70688479  0.86818346     0.08910
H1055       H  0.44840382  0.82889912  0.86569885     0.06440
H1056       H  0.47862105  0.75686572  0.75979096     0.06280
C1057       C  0.36746083  0.97316617  0.89480420     0.03320
C1058       C  0.35433210  0.49819509  0.87221610    -0.12830
C1059       C  0.36605312  0.49568653  0.83105446     0.00820
C1060       C  0.38928897  0.96741826  0.81344277    -0.11360
C1061       C  0.40241629  0.94311688  0.83520207     0.03310
C1062       C  0.39075481  0.94521758  0.87536427    -0.10780
H1063       H  0.33720623  0.52035367  0.88695418     0.08910
H1064       H  0.39893295  0.96551903  0.78235183     0.06440
H1065       H  0.40265361  0.92699046  0.89202277     0.06280
C1066       C  0.28126285  0.82618013  0.52883901     0.03320
C1067       C  0.28757695  0.86738167  0.53381609    -0.12830
C1068       C  0.32460862  0.88696798  0.53807187     0.00820
C1069       C  0.35376854  0.86507439  0.54140699    -0.11360
C1070       C  0.35195395  0.82607814  0.52565761     0.03310
C1071       C  0.31504546  0.80588300  0.52050197    -0.10780
H1072       H  0.26449766  0.88398298  0.53325089     0.08910
H1073       H  0.38145828  0.88011049  0.54843723     0.06440
H1074       H  0.31312351  0.77547953  0.50856728     0.06280
C1075       C  0.47224299  0.65944221  0.72278286     0.03320
C1076       C  0.48186040  0.62494177  0.73282398    -0.12830
C1077       C  0.48249449  0.62151231  0.77222461     0.00820
C1078       C  0.47156762  0.65350400  0.80031178    -0.11360
C1079       C  0.45647161  0.68509162  0.78861729     0.03310
C1080       C  0.44798550  0.68050574  0.75040180    -0.10780
H1081       H  0.99943913  0.60760984  0.71110674     0.08910
H1082       H  0.47888965  0.65563244  0.82942165     0.06440
H1083       H  0.43540046  0.70359740  0.74110471     0.06280
C1084       C  0.09122839  0.78007660  0.67867183     0.03320
C1085       C  0.11547798  0.75899380  0.65106334    -0.12830
C1086       C  0.10699414  0.75440229  0.61284606     0.00820
C1087       C  0.09197392  0.78602165  0.60113215    -0.11360
C1088       C  0.08104629  0.81801249  0.62921123     0.03310
C1089       C  0.08162762  0.81457642  0.66861719    -0.10780
H1090       H  0.12806527  0.73591468  0.66037691     0.08910
H1091       H  0.08470126  0.78392957  0.57200452     0.06440
H1092       H  0.06402739  0.83190269  0.69031328     0.06280
C1093       C  0.00480681  0.68622476  0.70575338    -0.05930
C1094       C  0.03863794  0.69333508  0.72414196    -0.17060
C1095       C  0.06518312  0.72663427  0.71973875     0.11260
C1096       C  0.05865646  0.75331395  0.69571112    -0.05860
C1097       C  0.02482586  0.74620626  0.67732212    -0.17090
C1098       C  0.99827525  0.71291091  0.68173263     0.11300
S1099       S  0.10760591  0.73488498  0.74444778    -0.32060
S1100       S  0.45584286  0.70467436  0.65703954    -0.32060
H1101       H  0.46252821  0.73970000  0.64010078     0.29300
H1102       H  0.10091530  0.69986823  0.76140192     0.29300
H1103       H  0.04331977  0.67391545  0.74395129     0.19890
H1104       H  0.02014964  0.76562502  0.65750755     0.19900
C1105       C  0.27981889  0.94935785  0.66262680    -0.05930
C1106       C  0.30127219  0.93701463  0.68805195    -0.17060
C1107       C  0.30158127  0.95510160  0.72623859     0.11260
C1108       C  0.28399860  0.98979606  0.73833654    -0.05860
C1109       C  0.26255701  0.00214353  0.71290229    -0.17090
C1110       C  0.26228599  0.98407996  0.67470592     0.11300
S1111       S  0.32042691  0.93003072  0.75960095    -0.32060
S1112       S  0.24357860  0.00921257  0.64129683    -0.32060
H1113       H  0.22316850  0.03442664  0.66928274     0.29300
H1114       H  0.34087326  0.90487839  0.73157940     0.29300
H1115       H  0.31330323  0.90974652  0.67948916     0.19890
H1116       H  0.25053247  0.52941083  0.72146159     0.19900
C1117       C  0.24421202  0.72373028  0.97042523    -0.05930
C1118       C  0.26684800  0.69877535  0.98181567    -0.17060
C1119       C  0.30448545  0.69575060  0.96370548     0.11260
C1120       C  0.31936571  0.71579520  0.93084492    -0.05860
C1121       C  0.29672549  0.74074476  0.91945091    -0.17090
C1122       C  0.25908358  0.74375819  0.93755282     0.11300
S1123       S  0.33317557  0.66817490  0.98540723    -0.32060
S1124       S  0.23037076  0.77128673  0.91582267    -0.32060
H1125       H  0.26095683  0.79196963  0.89342810     0.29300
H1126       H  0.30257280  0.64746875  0.00776055     0.29300
H1127       H  0.25634410  0.68500762  0.00795763     0.19890
H1128       H  0.30723073  0.75451578  0.89331135     0.19900
C1129       C  0.71606201  0.24081183  0.50279061     0.03320
C1130       C  0.68273018  0.25313918  0.49416424    -0.12830
C1131       C  0.67772281  0.29278373  0.50205733     0.00820
C1132       C  0.70836511  0.31908300  0.01737216    -0.11360
C1133       C  0.74038202  0.30432226  0.02826543     0.03310
C1134       C  0.73568247  0.26447995  0.03059839    -0.10780
H1135       H  0.66588418  0.23441481  0.47401630     0.08910
H1136       H  0.70889928  0.34999397  0.01684589     0.06440
H1137       H  0.75738942  0.25255034  0.04253414     0.06280
C1138       C  0.84643379  0.19893731  0.40026232     0.03320
C1139       C  0.87982390  0.18684849  0.40912677    -0.12830
C1140       C  0.88583322  0.14749239  0.39965499     0.00820
C1141       C  0.85496782  0.12106767  0.38433409    -0.11360
C1142       C  0.82288859  0.13576923  0.37351266     0.03310
C1143       C  0.82744149  0.17566157  0.37142973    -0.10780
H1144       H  0.89553482  0.20494032  0.43071978     0.08910
H1145       H  0.85456537  0.09014465  0.38468656     0.06440
H1146       H  0.80572794  0.18758779  0.35950542     0.06280
C1147       C  0.80220235  0.02174814  0.26549522     0.03320
C1148       C  0.82646515  0.04958597  0.24529650    -0.12830
C1149       C  0.86563587  0.04609314  0.24056625     0.00820
C1150       C  0.87959805  0.03435583  0.27272074    -0.11360
C1151       C  0.85310146  0.01943858  0.30402330     0.03310
C1152       C  0.81391437  0.01249067  0.29910454    -0.10780
H1153       H  0.81551430  0.06182861  0.22300174     0.08910
H1154       H  0.90994589  0.03254524  0.27183011     0.06440
H1155       H  0.79538390  0.49139484  0.31523682     0.06280
C1156       C  0.76150349  0.41822581  0.13584048     0.03320
C1157       C  0.74981461  0.42751933  0.10223696    -0.12830
C1158       C  0.71065864  0.42039898  0.09719866     0.00820
C1159       C  0.68414644  0.40537812  0.12844025    -0.11360
C1160       C  0.69810069  0.39366470  0.16061160     0.03310
C1161       C  0.73729038  0.39026828  0.15592144    -0.10780
H1162       H  0.76832719  0.44870249  0.08618343     0.08910
H1163       H  0.65378395  0.40709909  0.12928282     0.06440
H1164       H  0.74824389  0.37800535  0.17820064     0.06280
O1165       O  0.83625097  0.49362126  0.46044937    -0.72750
O1166       O  0.84472804  0.02487340  0.07821400    -0.73730
O1167       O  0.86604562  0.06040971  0.50662683    -0.62350
O1168       O  0.81491002  0.45326499  0.53052670    -0.70760
O1169       O  0.87398104  0.43695447  0.52249400    -0.70320
O1170       O  0.92347590  0.03914734  0.49769938    -0.61570
O1171       O  0.90233074  0.00440449  0.06612636    -0.74080
O1172       O  0.89348576  0.47274850  0.45362456    -0.72860
Cu1173     Cu  0.83801017  0.00860930  0.51966122     1.04560
Cu1174     Cu  0.89983893  0.48747468  0.50998519     1.04330
C1175       C  0.86495947  0.48003723  0.43838699     0.93440
C1176       C  0.87675152  0.02131106  0.08970387     0.92580
C1177       C  0.90253905  0.06516914  0.49550029     0.84730
C1178       C  0.83771999  0.42795598  0.53067304     0.91000
C1179       C  0.88765639  0.04624097  0.19985635     0.03320
C1180       C  0.86810509  0.03691718  0.16564086    -0.12830
C1181       C  0.88893105  0.03975007  0.12811522     0.00820
C1182       C  0.92777307  0.05434423  0.12587806    -0.11360
C1183       C  0.94846725  0.05264704  0.15639734     0.03310
C1184       C  0.92840194  0.05082080  0.19394413    -0.10780
H1185       H  0.83776794  0.02595108  0.16779659     0.08910
H1186       H  0.94333942  0.05957835  0.09747673     0.06440
H1187       H  0.94432515  0.05191764  0.21777115     0.06280
C1188       C  0.97819729  0.13214287  0.44071038     0.03320
C1189       C  0.95462295  0.14558138  0.41711588    -0.12830
C1190       C  0.91386362  0.13350331  0.42105479     0.00820
C1191       C  0.89760759  0.10967011  0.44950788    -0.11360
C1192       C  0.91994992  0.09756671  0.47382693     0.03310
C1193       C  0.95994536  0.10876402  0.46947074    -0.10780
H1194       H  0.96835475  0.16336327  0.39505430     0.08910
H1195       H  0.86695261  0.09939388  0.45208792     0.06440
H1196       H  0.97728134  0.09711596  0.48709118     0.06280
O1197       O  0.50945436  0.46299410  0.25081758    -0.72750
O1198       O  0.97991621  0.34523399  0.26386715    -0.73730
O1199       O  0.94298882  0.41522634  0.28108831    -0.62350
O1200       O  0.55019851  0.39277285  0.23256374    -0.70760
O1201       O  0.56536817  0.40550041  0.29256209    -0.70320
O1202       O  0.96247295  0.42548826  0.33966995    -0.61570
O1203       O  0.00014951  0.35999113  0.32174568    -0.74080
O1204       O  0.52734171  0.47224961  0.30983643    -0.72860
Cu1205     Cu  0.99511922  0.40343367  0.25451727     1.04560
Cu1206     Cu  0.51463182  0.41598189  0.31743277     1.04330
C1207       C  0.52157506  0.48621056  0.27965507     0.93440
C1208       C  0.98383632  0.33521300  0.29685157     0.92580
C1209       C  0.93676253  0.42540899  0.31791171     0.84730
C1210       C  0.57478682  0.39495671  0.25644470     0.91000
C1211       C  0.52961732  0.02966493  0.28011105     0.03320
C1212       C  0.56072370  0.04848049  0.29909345    -0.12830
C1213       C  0.56479026  0.08879031  0.31047443     0.00820
C1214       C  0.54020393  0.11153630  0.29912856    -0.11330
C1215       C  0.50825968  0.09436557  0.28092891     0.03310
C1216       C  0.00314157  0.05293753  0.27096133    -0.10780
H1217       H  0.57956298  0.03108255  0.30899910     0.08910
H1218       H  0.54395774  0.14279572  0.30773628     0.06440
H1219       H  0.97790558  0.03851314  0.25885020     0.06280
C1220       C  0.67606461  0.39351278  0.20131723     0.03320
C1221       C  0.63531375  0.38890000  0.20722708    -0.12830
C1222       C  0.61524744  0.38710215  0.24478269     0.00820
C1223       C  0.63595752  0.38548232  0.27531460    -0.11360
C1224       C  0.67480698  0.40006537  0.27306044     0.03310
C1225       C  0.69561800  0.40286971  0.23553091    -0.10780
H1226       H  0.61938826  0.38774942  0.18338504     0.08910
H1227       H  0.62040176  0.38025821  0.30372193     0.06440
H1228       H  0.72595310  0.41383518  0.23337353     0.06280
O1229       O  0.66144614  0.43528989  0.33510695    -0.72750
O1230       O  0.67036440  0.46685750  0.44757750    -0.73730
O1231       O  0.69000459  0.50278157  0.37880728    -0.62350
O1232       O  0.64036336  0.40050232  0.40337571    -0.70760
O1233       O  0.69778636  0.37923818  0.39446113    -0.70320
O1234       O  0.74906668  0.48646821  0.37074218    -0.61570
O1235       O  0.72760485  0.44600445  0.44076937    -0.74080
O1236       O  0.71909917  0.41494009  0.32290325    -0.72860
Cu1237     Cu  0.66407674  0.45222813  0.39120706     1.04560
Cu1238     Cu  0.72586563  0.43108130  0.38152825     1.04330
C1239       C  0.68703327  0.41846332  0.31147006     0.93440
C1240       C  0.69888149  0.45957350  0.46282615     0.92580
C1241       C  0.72626906  0.51179597  0.37062488     0.84730
C1242       C  0.66127939  0.37443959  0.40551611     0.91000
O1243       O  0.56349436  0.07958267  0.07937256    -0.72750
O1244       O  0.53629593  0.46735957  0.09138213    -0.73730
O1245       O  0.49828160  0.03412144  0.10861544    -0.62350
O1246       O  0.60116004  0.51409524  0.06150465    -0.70760
O1247       O  0.62066059  0.52442532  0.12008197    -0.70320
O1248       O  0.51347924  0.04688049  0.16860528    -0.61570
O1249       O  0.55421002  0.47664718  0.15039051    -0.74080
O1250       O  0.58372300  0.09438183  0.13725360    -0.72860
Cu1251     Cu  0.54901427  0.52361110  0.08373904     1.04560
Cu1252     Cu  0.56853274  0.03620297  0.14664862     1.04330
C1253       C  0.57980360  0.10437402  0.10425683     0.93440
C1254       C  0.54206645  0.45341700  0.12157196     0.92580
C1255       C  0.48889197  0.04470962  0.14472854     0.84730
C1256       C  0.62688355  0.51423350  0.08326213     0.91000
O1257       O  0.54328416  0.16535981  0.42097082    -0.72750
O1258       O  0.66185289  0.15872105  0.39110254    -0.73730
O1259       O  0.59291703  0.14132192  0.35275219    -0.62350
O1260       O  0.61123345  0.18466876  0.46315836    -0.70760
O1261       O  0.60245025  0.12346339  0.47556644    -0.70320
O1262       O  0.58463779  0.08131686  0.36950172    -0.61570
O1263       O  0.64918854  0.09906247  0.40814935    -0.74080
O1264       O  0.53696871  0.10534264  0.43674903    -0.72860
Cu1265     Cu  0.60298955  0.16511140  0.40657329     1.04560
Cu1266     Cu  0.59331866  0.10076599  0.42314645     1.04330
C1267       C  0.52154264  0.13506223  0.43234725     0.93440
C1268       C  0.67311191  0.12574220  0.39324016     0.92580
C1269       C  0.58360712  0.10453058  0.34485846     0.84730
C1270       C  0.60939800  0.15974544  0.48711631     0.91000
C1271       C  0.60573129  0.21397414  0.09041178     0.03320
C1272       C  0.59544156  0.18002589  0.11062324    -0.12830
C1273       C  0.59714114  0.14239836  0.09014878     0.00820
C1274       C  0.61109246  0.13942832  0.05065160    -0.11360
C1275       C  0.61306375  0.17054775  0.02912687     0.03310
C1276       C  0.61173216  0.20827093  0.04921749    -0.10780
H1277       H  0.58501767  0.18266986  0.14147183     0.08910
H1278       H  0.61526239  0.11067136  0.03555049     0.06440
H1279       H  0.61501034  0.23268394  0.03309633     0.06280
C1280       C  0.69620441  0.46640436  0.00641681     0.03320
C1281       C  0.67290767  0.49434781  0.02586335    -0.12830
C1282       C  0.66125556  0.49644597  0.06602799     0.00820
C1283       C  0.67439261  0.47214524  0.08777985    -0.11360
C1284       C  0.69764806  0.44388528  0.07015896     0.03310
C1285       C  0.70936131  0.44138238  0.02899794    -0.10780
H1286       H  0.66100050  0.51257216  0.00920886     0.08910
H1287       H  0.66475430  0.47403982  0.11887165     0.06440
H1288       H  0.72649243  0.41923028  0.01425401     0.06280
C1289       C  0.78256489  0.11374076  0.37222909     0.03320
C1290       C  0.77634677  0.07250876  0.36735037    -0.12830
C1291       C  0.73930856  0.05280086  0.36318922     0.00820
C1292       C  0.71007530  0.07459670  0.35983104    -0.11360
C1293       C  0.71178157  0.11358492  0.37554507     0.03310
C1294       C  0.74866502  0.13389661  0.38060278    -0.10780
H1295       H  0.79948772  0.05599353  0.36796214     0.08910
H1296       H  0.68241052  0.05949226  0.35280300     0.06440
H1297       H  0.75044079  0.16428686  0.39252926     0.06280
O1298       O  0.91450051  0.34050680  0.49298213    -0.72750
O1299       O  0.52669713  0.33434873  0.46429445    -0.73730
O1300       O  0.96111311  0.31603882  0.42558679    -0.62350
O1301       O  0.47867837  0.35834914  0.03187576    -0.70760
O1302       O  0.47046431  0.29834513  0.04861670    -0.70320
O1303       O  0.95219322  0.25482313  0.43800447    -0.61570
O1304       O  0.52040593  0.27432360  0.48004377    -0.74080
O1305       O  0.90181242  0.28086655  0.51009266    -0.72860
Cu1306     Cu  0.47033666  0.33883345  0.47795109     1.04560
Cu1307     Cu  0.96065342  0.27448877  0.49453702     1.04330
C1308       C  0.89058227  0.31385392  0.50793230     0.93440
C1309       C  0.54214465  0.30465154  0.46870324     0.92580
C1310       C  0.95401164  0.27976136  0.41406623     0.84730
C1311       C  0.47978113  0.33513654  0.05650199     0.91000
C1312       C  0.53395883  0.40996448  0.12114720     0.03320
C1313       C  0.50280692  0.39118002  0.10221313    -0.12830
C1314       C  0.49868210  0.35086924  0.09084404     0.00820
C1315       C  0.52325892  0.32809296  0.10216608    -0.11360
C1316       C  0.55524902  0.34523074  0.12031589     0.03310
C1317       C  0.56042670  0.38665983  0.13026029    -0.10780
H1318       H  0.48397183  0.40860148  0.09233468     0.08910
H1319       H  0.51945841  0.29683266  0.09357421     0.06440
H1320       H  0.58570783  0.40105473  0.14231823     0.06280
C1321       C  0.58551018  0.30762837  0.46039971     0.03320
C1322       C  0.60904584  0.29447268  0.48422271    -0.12830
C1323       C  0.64982531  0.30642803  0.48021365     0.00820
C1324       C  0.66617951  0.32978421  0.45137313    -0.11360
C1325       C  0.64383130  0.34196316  0.42709787     0.03310
C1326       C  0.60380435  0.33087143  0.43153116    -0.10780
H1327       H  0.59526955  0.27702128  0.50653074     0.08910
H1328       H  0.69689983  0.33975663  0.44854273     0.06440
H1329       H  0.58648465  0.34249796  0.41387887     0.06280
C1330       C  0.95774852  0.22558411  0.31067255     0.03320
C1331       C  0.95170298  0.23127131  0.35186400    -0.12830
C1332       C  0.95059256  0.26901056  0.37195308     0.00820
C1333       C  0.95257552  0.30014631  0.35045216    -0.11360
C1334       C  0.96648166  0.29717810  0.31094763     0.03310
C1335       C  0.96812038  0.25954016  0.29046648    -0.10780
H1336       H  0.94819548  0.20683334  0.36798558     0.08910
H1337       H  0.94846679  0.32890737  0.36557931     0.06440
H1338       H  0.97855316  0.25689363  0.25962041     0.06280
C1339       C  0.86752936  0.47336806  0.39478217     0.03320
C1340       C  0.85439189  0.99842803  0.37220668    -0.12830
C1341       C  0.86608582  0.99590436  0.33104280     0.00820
C1342       C  0.88931373  0.46759775  0.31341134    -0.11360
C1343       C  0.90241803  0.44326214  0.33515541     0.03310
C1344       C  0.89077510  0.44538017  0.37532506    -0.10780
H1345       H  0.83731250  0.02063102  0.38694230     0.08910
H1346       H  0.89893396  0.46568340  0.28231618     0.06440
H1347       H  0.90265215  0.42713064  0.39197790     0.06280
C1348       C  0.78077786  0.32618475  0.02939440     0.03320
C1349       C  0.78713218  0.36739504  0.03421705    -0.12830
C1350       C  0.82420401  0.38698334  0.03836359     0.00820
C1351       C  0.85334719  0.36508757  0.04175763    -0.11360
C1352       C  0.85153077  0.32609157  0.02603021     0.03310
C1353       C  0.81459061  0.30589260  0.02098500    -0.10780
H1354       H  0.76406104  0.38398123  0.03358071     0.08910
H1355       H  0.88104516  0.38011871  0.04876911     0.06440
H1356       H  0.81268824  0.27549102  0.00905575     0.06280
C1357       C  0.97231354  0.15949245  0.22260998     0.03320
C1358       C  0.98190243  0.12499825  0.23268729    -0.12830
C1359       C  0.98236862  0.12152867  0.27210695     0.00820
C1360       C  0.97133692  0.15348980  0.30018090    -0.11360
C1361       C  0.95632529  0.18509865  0.28842181     0.03310
C1362       C  0.94798618  0.18054479  0.25015827    -0.10780
H1363       H  0.49956187  0.10769534  0.21102387     0.08910
H1364       H  0.97850932  0.15557550  0.32935384     0.06440
H1365       H  0.93545304  0.20364610  0.24081694     0.06280
C1366       C  0.59136696  0.28009492  0.17851291     0.03320
C1367       C  0.61562232  0.25902302  0.15090035    -0.12830
C1368       C  0.60716275  0.25445605  0.11267519     0.00820
C1369       C  0.59209033  0.28605679  0.10097937    -0.11360
C1370       C  0.58115746  0.31804393  0.12906854     0.03310
C1371       C  0.58177149  0.31460526  0.16847121    -0.10780
H1372       H  0.62819002  0.23592306  0.16020329     0.08910
H1373       H  0.58478982  0.28394356  0.07186246     0.06440
H1374       H  0.56419559  0.33194299  0.19018515     0.06280
C1375       C  0.50489580  0.18626932  0.20560750    -0.05930
C1376       C  0.53870501  0.19338291  0.22403027    -0.17060
C1377       C  0.56528571  0.22665413  0.21959212     0.11260
C1378       C  0.55878810  0.25332425  0.19553684    -0.05860
C1379       C  0.52497071  0.24621519  0.17712731    -0.17090
C1380       C  0.49840548  0.21293198  0.18154273     0.11300
S1381       S  0.60771024  0.23488077  0.24429621    -0.32060
S1382       S  0.95601000  0.20467723  0.15679178    -0.32060
H1383       H  0.96273024  0.23968122  0.13981416     0.29300
H1384       H  0.60099716  0.19986584  0.26125487     0.29300
H1385       H  0.54334589  0.17398253  0.24387942     0.19890
H1386       H  0.52031745  0.26562109  0.15729135     0.19900
C1387       C  0.77971265  0.44977392  0.16285457    -0.05930
C1388       C  0.80118209  0.43742662  0.18826311    -0.17060
C1389       C  0.80147235  0.45547885  0.22646210     0.11260
C1390       C  0.78390997  0.49017963  0.23857562    -0.05860
C1391       C  0.76242867  0.50252127  0.21317507    -0.17090
C1392       C  0.76211123  0.48445322  0.17498280     0.11300
S1393       S  0.82024251  0.43035315  0.25983136    -0.32060
S1394       S  0.74322660  0.50952965  0.14165260    -0.32060
H1395       H  0.72277908  0.53466068  0.16969693     0.29300
H1396       H  0.84066813  0.40517801  0.23181594     0.29300
H1397       H  0.81324945  0.41018099  0.17967246     0.19890
H1398       H  0.75036552  0.02977991  0.22175198     0.19900
C1399       C  0.74297957  0.22260114  0.47105479    -0.05930
C1400       C  0.76598628  0.19803363  0.48253551    -0.17060
C1401       C  0.80381346  0.19559924  0.46456136     0.11260
C1402       C  0.81860014  0.21597723  0.43187783    -0.05860
C1403       C  0.79562087  0.24065805  0.42057553    -0.17090
C1404       C  0.75770662  0.24240378  0.43802695     0.11300
S1405       S  0.83297525  0.16868297  0.48643109    -0.32060
S1406       S  0.72952309  0.26859348  0.41454167    -0.32060
H1407       H  0.69931895  0.23765014  0.41223191     0.29300
H1408       H  0.80257403  0.14741557  0.50849248     0.29300
H1409       H  0.75569504  0.18435095  0.50876514     0.19890
H1410       H  0.80577488  0.25494307  0.39464680     0.19900
C1411       C  0.71654178  0.24112677  0.00193689     0.03320
C1412       C  0.68324123  0.25328660  0.99296790    -0.12830
C1413       C  0.67739752  0.29269232  0.00219229     0.00820
C1414       C  0.70907364  0.31912652  0.51647935    -0.11360
C1415       C  0.74092433  0.30435299  0.52765355     0.03310
C1416       C  0.73604095  0.26460095  0.53058762    -0.10780
H1417       H  0.66749219  0.23515244  0.97143813     0.08910
H1418       H  0.70995502  0.34995986  0.51526205     0.06440
H1419       H  0.75783879  0.25272854  0.54244212     0.06280
C1420       C  0.84706635  0.19843293  0.89934376     0.03320
C1421       C  0.88036940  0.18628621  0.90832511    -0.12830
C1422       C  0.88624215  0.14688863  0.89907339     0.00820
C1423       C  0.85528944  0.12049028  0.88387210    -0.11360
C1424       C  0.82326986  0.13524340  0.87297477     0.03310
C1425       C  0.82795992  0.17508692  0.87065382    -0.10780
H1426       H  0.89609967  0.20441746  0.92987257     0.08910
H1427       H  0.85476560  0.08957871  0.88438648     0.06440
H1428       H  0.80625543  0.18701130  0.85870893     0.06280
C1429       C  0.80221064  0.02134912  0.76534424     0.03320
C1430       C  0.82643611  0.04929183  0.74525369    -0.12830
C1431       C  0.86562500  0.04589730  0.74058055     0.00820
C1432       C  0.87956324  0.03418189  0.77276183    -0.11360
C1433       C  0.85304031  0.01917193  0.80400342     0.03310
C1434       C  0.81388519  0.01206777  0.79896065    -0.10780
H1435       H  0.81549084  0.06155591  0.72297044     0.08910
H1436       H  0.90992208  0.03246108  0.77193460     0.06440
H1437       H  0.79537198  0.49092525  0.81503519     0.06280
C1438       C  0.76150840  0.41778901  0.63572759     0.03320
C1439       C  0.74980961  0.42704297  0.60211152    -0.12830
C1440       C  0.71062105  0.42013847  0.59720064     0.00820
C1441       C  0.68410824  0.40524002  0.62850625    -0.11360
C1442       C  0.69805506  0.39349171  0.66066389     0.03310
C1443       C  0.73722172  0.38997746  0.65594169    -0.10780
H1444       H  0.76839742  0.44808208  0.58593964     0.08910
H1445       H  0.65375922  0.40706464  0.62939581     0.06440
H1446       H  0.74815979  0.37773140  0.67824230     0.06280
O1447       O  0.83619413  0.49352122  0.96043543    -0.72750
O1448       O  0.84478401  0.02481524  0.57826264    -0.73730
O1449       O  0.86621506  0.06029242  0.00647170    -0.62350
O1450       O  0.81464997  0.45330421  0.03060086    -0.70760
O1451       O  0.87365323  0.43684534  0.02263589    -0.70320
O1452       O  0.92356151  0.03886300  0.99765013    -0.61570
O1453       O  0.90246756  0.00452873  0.56607758    -0.74080
O1454       O  0.89335118  0.47249601  0.95368553    -0.72860
Cu1455     Cu  0.83796911  0.00858873  0.01962290     1.04560
Cu1456     Cu  0.89969777  0.48727782  0.01004251     1.04330
C1457       C  0.86487354  0.47984632  0.93841050     0.93440
C1458       C  0.87685066  0.02132486  0.58970776     0.92580
C1459       C  0.90271670  0.06493007  0.99534615     0.84730
C1460       C  0.83737878  0.42793751  0.03082547     0.91000
C1461       C  0.88769067  0.04610413  0.69988927     0.03320
C1462       C  0.86817153  0.03680957  0.66565038    -0.12830
C1463       C  0.88901585  0.03970261  0.62814501     0.00820
C1464       C  0.92785129  0.05432175  0.62594828    -0.11360
C1465       C  0.94853138  0.05259337  0.65647184     0.03310
C1466       C  0.92844037  0.05070431  0.69400579    -0.10780
H1467       H  0.83784214  0.02581849  0.66776701     0.08910
H1468       H  0.94343089  0.05960856  0.59756629     0.06440
H1469       H  0.94434555  0.05176348  0.71784188     0.06280
C1470       C  0.97850947  0.13185137  0.94052330     0.03320
C1471       C  0.95496859  0.14518053  0.91681646    -0.12830
C1472       C  0.91423120  0.13296633  0.92058993     0.00820
C1473       C  0.89794079  0.10916748  0.94905902    -0.11360
C1474       C  0.92021783  0.09721152  0.97353612     0.03310
C1475       C  0.96021515  0.10845609  0.96926713    -0.10780
H1476       H  0.96871790  0.16301143  0.89480833     0.08910
H1477       H  0.86729961  0.09883612  0.95156759     0.06440
H1478       H  0.97751558  0.09687582  0.98697325     0.06280
O1479       O  0.50946895  0.46291959  0.75086657    -0.72750
O1480       O  0.97995391  0.34517173  0.76398876    -0.73730
O1481       O  0.94302486  0.41512691  0.78116058    -0.62350
O1482       O  0.55019373  0.39269479  0.73263323    -0.70760
O1483       O  0.56539645  0.40543296  0.79262081    -0.70320
O1484       O  0.96252430  0.42546490  0.83973859    -0.61570
O1485       O  0.00018070  0.35997306  0.82186973    -0.74080
O1486       O  0.52739569  0.47219936  0.80986922    -0.72860
Cu1487     Cu  0.99513984  0.40335758  0.75459595     1.04560
Cu1488     Cu  0.51467471  0.41594677  0.81750470     1.04330
C1489       C  0.52161771  0.48614640  0.77968527     0.93440
C1490       C  0.98387016  0.33518036  0.79698769     0.92580
C1491       C  0.93680118  0.42532390  0.81797873     0.84730
C1492       C  0.57478402  0.39485614  0.75650414     0.91000
C1493       C  0.52970758  0.02959896  0.78011559     0.03320
C1494       C  0.56086365  0.04838565  0.79904204    -0.12830
C1495       C  0.56498514  0.08869667  0.81041296     0.00820
C1496       C  0.54040283  0.11147115  0.79909718    -0.11330
C1497       C  0.50840491  0.09433047  0.78096281     0.03310
C1498       C  0.00322914  0.05290104  0.77102017    -0.10780
H1499       H  0.57970381  0.03096592  0.80891513     0.08910
H1500       H  0.54420294  0.14273173  0.80768742     0.06440
H1501       H  0.97794265  0.03850205  0.75898224     0.06280
C1502       C  0.67602378  0.39333861  0.70136923     0.03320
C1503       C  0.63527687  0.38875058  0.70727651    -0.12830
C1504       C  0.61520879  0.38691690  0.74482444     0.00820
C1505       C  0.63590251  0.38520557  0.77534002    -0.11360
C1506       C  0.67474173  0.39980713  0.77310899     0.03310
C1507       C  0.69556968  0.40265796  0.73558768    -0.10780
H1508       H  0.61935846  0.38764896  0.68344287     0.08910
H1509       H  0.62033642  0.37995970  0.80373850     0.06440
H1510       H  0.72590499  0.41363229  0.73343705     0.06280
O1511       O  0.66133208  0.43514706  0.83509802    -0.72750
O1512       O  0.67031923  0.46706857  0.94754009    -0.73730
O1513       O  0.69001954  0.50270859  0.87858718    -0.62350
O1514       O  0.64009463  0.40069550  0.90357875    -0.70760
O1515       O  0.69744084  0.37926703  0.89476683    -0.70320
O1516       O  0.74902488  0.48625372  0.87061634    -0.61570
O1517       O  0.72747997  0.44605007  0.94078882    -0.74080
O1518       O  0.71893500  0.41467785  0.82301603    -0.72860
Cu1519     Cu  0.66397353  0.45227986  0.89118358     1.04560
Cu1520     Cu  0.72569139  0.43096928  0.88160416     1.04330
C1521       C  0.68691393  0.41824182  0.81152299     0.93440
C1522       C  0.69880070  0.45972497  0.96281336     0.92580
C1523       C  0.72629334  0.51161964  0.87039686     0.84730
C1524       C  0.66093842  0.37463024  0.90589098     0.91000
O1525       O  0.56360697  0.07952695  0.57945054    -0.72750
O1526       O  0.53634642  0.46734704  0.59140260    -0.73730
O1527       O  0.49836479  0.03411769  0.60868016    -0.62350
O1528       O  0.60124987  0.51402648  0.56153697    -0.70760
O1529       O  0.62074759  0.52431276  0.62011366    -0.70320
O1530       O  0.51355558  0.04682885  0.66867342    -0.61570
O1531       O  0.55425450  0.47658213  0.65041296    -0.74080
O1532       O  0.58383190  0.09430060  0.63733509    -0.72860
Cu1533     Cu  0.54910849  0.52358198  0.58378661     1.04560
Cu1534     Cu  0.56860778  0.03612339  0.64670100     1.04330
C1535       C  0.57991440  0.10430414  0.60434393     0.93440
C1536       C  0.54209409  0.45338144  0.62158572     0.92580
C1537       C  0.48896776  0.04467637  0.64479914     0.84730
C1538       C  0.62696793  0.51412476  0.58329107     0.91000
O1539       O  0.54360203  0.16521369  0.92090862    -0.72750
O1540       O  0.66223403  0.15868001  0.89087514    -0.73730
O1541       O  0.59319600  0.14122088  0.85264303    -0.62350
O1542       O  0.61172870  0.18470257  0.96300061    -0.70760
O1543       O  0.60290320  0.12349128  0.97541223    -0.70320
O1544       O  0.58497712  0.08121737  0.86938612    -0.61570
O1545       O  0.64958188  0.09903947  0.90797391    -0.74080
O1546       O  0.53735358  0.10520134  0.93667838    -0.72860
Cu1547     Cu  0.60335429  0.16505026  0.90643565     1.04560
Cu1548     Cu  0.59371948  0.10071269  0.92302149     1.04330
C1549       C  0.52188213  0.13488280  0.93226085     0.93440
C1550       C  0.67349207  0.12569496  0.89301095     0.92580
C1551       C  0.58388079  0.10442929  0.84475749     0.84730
C1552       C  0.60986600  0.15977650  0.98696223     0.91000
C1553       C  0.60553243  0.21391130  0.59058247     0.03320
C1554       C  0.59546391  0.17994880  0.61078797    -0.12830
C1555       C  0.59719432  0.14234690  0.59026490     0.00820
C1556       C  0.61102762  0.13942840  0.55073881    -0.11360
C1557       C  0.61269755  0.17052154  0.52925851     0.03310
C1558       C  0.61122631  0.20820760  0.54938854    -0.10780
H1559       H  0.58515630  0.18255265  0.64166174     0.08910
H1560       H  0.61527467  0.11070536  0.53559436     0.06440
H1561       H  0.61413105  0.23258998  0.53329540     0.06280
C1562       C  0.69627559  0.46624004  0.50643524     0.03320
C1563       C  0.67298135  0.49419121  0.52588234    -0.12830
C1564       C  0.66132374  0.49629685  0.56604907     0.00820
C1565       C  0.67443992  0.47197779  0.58779896    -0.11360
C1566       C  0.69766506  0.44368704  0.57017475     0.03310
C1567       C  0.70940378  0.44120305  0.52901811    -0.10780
H1568       H  0.66108998  0.51242580  0.50922570     0.08910
H1569       H  0.66481139  0.47388978  0.61889251     0.06440
H1570       H  0.72653834  0.41905776  0.51427895     0.06280
C1571       C  0.78287527  0.11337674  0.87184536     0.03320
C1572       C  0.77652487  0.07216622  0.86700755    -0.12830
C1573       C  0.73945129  0.05257739  0.86286750     0.00820
C1574       C  0.71030075  0.07447482  0.85949675    -0.11360
C1575       C  0.71211884  0.11346849  0.87523150     0.03310
C1576       C  0.74906057  0.13366629  0.88026929    -0.10780
H1577       H  0.79960101  0.05558080  0.86762765     0.08910
H1578       H  0.68260000  0.05944579  0.85249135     0.06440
H1579       H  0.75096298  0.16406614  0.89220284     0.06280
O1580       O  0.91406804  0.34052478  0.99329427    -0.72750
O1581       O  0.52629414  0.33437229  0.96457652    -0.73730
O1582       O  0.96073877  0.31608062  0.92585229    -0.62350
O1583       O  0.47906114  0.35833417  0.53158634    -0.70760
O1584       O  0.47080265  0.29832579  0.54832271    -0.70320
O1585       O  0.95191460  0.25486825  0.93826225    -0.61570
O1586       O  0.52004917  0.27435914  0.98034415    -0.74080
O1587       O  0.90141854  0.28088377  0.01039202    -0.72860
Cu1588     Cu  0.46992873  0.33885643  0.97824134     1.04560
Cu1589     Cu  0.96029768  0.27451795  0.99482505     1.04330
C1590       C  0.89015897  0.31386776  0.00825576     0.93440
C1591       C  0.54176705  0.30469138  0.96899210     0.92580
C1592       C  0.95377625  0.27979563  0.91430196     0.84730
C1593       C  0.48007801  0.33511974  0.55623548     0.91000
C1594       C  0.53396204  0.40993534  0.62113263     0.03320
C1595       C  0.50290143  0.39116268  0.60205332    -0.12830
C1596       C  0.49879962  0.35085526  0.59068396     0.00820
C1597       C  0.52326023  0.32807090  0.60216805    -0.11360
C1598       C  0.55518361  0.34520236  0.62042043     0.03310
C1599       C  0.56035886  0.38662746  0.63036716    -0.10780
H1600       H  0.48413667  0.40858664  0.59207114     0.08910
H1601       H  0.51944962  0.29680705  0.59360085     0.06440
H1602       H  0.58559063  0.40101779  0.64251404     0.06280
C1603       C  0.58513917  0.30772460  0.96073037     0.03320
C1604       C  0.60867742  0.29440447  0.98444525    -0.12830
C1605       C  0.64941459  0.30661485  0.98066959     0.00820
C1606       C  0.66570941  0.33040065  0.95218967    -0.11360
C1607       C  0.64343396  0.34235392  0.92770891     0.03310
C1608       C  0.60343521  0.33111318  0.93198094    -0.10780
H1609       H  0.59492723  0.27658303  0.00646192     0.08910
H1610       H  0.69635299  0.34072189  0.94967377     0.06440
H1611       H  0.58613530  0.34269002  0.91427172     0.06280
C1612       C  0.95790855  0.22558331  0.81086443     0.03320
C1613       C  0.95189968  0.23129683  0.85205662    -0.12830
C1614       C  0.95058341  0.26902424  0.87213737     0.00820
C1615       C  0.95257628  0.30014176  0.85060470    -0.11360
C1616       C  0.96652447  0.29715941  0.81110563     0.03310
C1617       C  0.96820798  0.25952418  0.79064118    -0.10780
H1618       H  0.94860021  0.20688658  0.86818405     0.08910
H1619       H  0.94841925  0.32890352  0.86570057     0.06440
H1620       H  0.97862428  0.25686746  0.75979162     0.06280
C1621       C  0.86747527  0.47316894  0.89480514     0.03320
C1622       C  0.85431534  0.99819130  0.87221597    -0.12830
C1623       C  0.86603637  0.99568419  0.83105452     0.00820
C1624       C  0.88930247  0.46741761  0.81344333    -0.11360
C1625       C  0.90242960  0.44311698  0.83520348     0.03310
C1626       C  0.89076842  0.44521919  0.87536585    -0.10780
H1627       H  0.83718754  0.02034809  0.88695466     0.08910
H1628       H  0.89894505  0.46551603  0.78235205     0.06440
H1629       H  0.90266668  0.42699212  0.89202484     0.06280
C1630       C  0.78128047  0.32618185  0.52883847     0.03320
C1631       C  0.78759606  0.36738338  0.53381668    -0.12830
C1632       C  0.82462785  0.38696827  0.53807415     0.00820
C1633       C  0.85378568  0.36507332  0.54141170    -0.11360
C1634       C  0.85197054  0.32607771  0.52565999     0.03310
C1635       C  0.81506211  0.30588366  0.52050176    -0.10780
H1636       H  0.76451790  0.38398586  0.53325132     0.08910
H1637       H  0.88147538  0.38010841  0.54844332     0.06440
H1638       H  0.81313932  0.27548059  0.50856540     0.06280
C1639       C  0.97223650  0.15944661  0.72278229     0.03320
C1640       C  0.98185104  0.12494403  0.73282174    -0.12830
C1641       C  0.98248582  0.12151317  0.77222203     0.00820
C1642       C  0.97156089  0.15350469  0.80031036    -0.11360
C1643       C  0.95646725  0.18509439  0.78861748     0.03310
C1644       C  0.94798045  0.18051075  0.75040235    -0.10780
H1645       H  0.49942805  0.10761130  0.71110360     0.08910
H1646       H  0.97888347  0.15563160  0.82941984     0.06440
H1647       H  0.93539713  0.20360430  0.74110661     0.06280
C1648       C  0.59123336  0.28007160  0.67867230     0.03320
C1649       C  0.61547743  0.25898423  0.65106190    -0.12830
C1650       C  0.60699062  0.25439513  0.61284583     0.00820
C1651       C  0.59197596  0.28601852  0.60113354    -0.11360
C1652       C  0.58105504  0.31801139  0.62921319     0.03310
C1653       C  0.58163801  0.31457445  0.66861873    -0.10780
H1654       H  0.62806085  0.23590170  0.66037402     0.08910
H1655       H  0.58470103  0.28392812  0.57200699     0.06440
H1656       H  0.56404196  0.33190377  0.69031595     0.06280
C1657       C  0.50480230  0.18622828  0.70575427    -0.05930
C1658       C  0.53863392  0.19333377  0.72414199    -0.17060
C1659       C  0.56518232  0.22663083  0.71973953     0.11260
C1660       C  0.55865841  0.25331344  0.69571364    -0.05860
C1661       C  0.52482670  0.24621132  0.67732658    -0.17090
C1662       C  0.49827311  0.21291783  0.68173592     0.11300
S1663       S  0.60760629  0.23487459  0.74444640    -0.32060
S1664       S  0.95584026  0.20468781  0.65704386    -0.32060
H1665       H  0.96252869  0.23971496  0.64010759     0.29300
H1666       H  0.60091167  0.19985728  0.76139975     0.29300
H1667       H  0.54331415  0.17391171  0.74394962     0.19890
H1668       H  0.52015218  0.26563257  0.65751371     0.19900
C1669       C  0.77983983  0.44935794  0.66263255    -0.05930
C1670       C  0.80128542  0.43701389  0.68806438    -0.17060
C1671       C  0.80159180  0.45510507  0.72624992     0.11260
C1672       C  0.78401638  0.48980485  0.73833964    -0.05860
C1673       C  0.76258147  0.50215242  0.71289930    -0.17090
C1674       C  0.76231316  0.48408476  0.67470400     0.11300
S1675       S  0.82042170  0.43003246  0.75962206    -0.32060
S1676       S  0.74362087  0.50921949  0.64128602    -0.32060
H1677       H  0.72321148  0.53443986  0.66926545     0.29300
H1678       H  0.84086389  0.40487023  0.73160778     0.29300
H1679       H  0.81331193  0.40974275  0.67950751     0.19890
H1680       H  0.75050311  0.02939869  0.72147057     0.19900
C1681       C  0.74421209  0.22373027  0.97042928    -0.05930
C1682       C  0.76685067  0.19877690  0.98181823    -0.17060
C1683       C  0.80448719  0.19575279  0.96370493     0.11260
C1684       C  0.81936341  0.21579545  0.93084218    -0.05860
C1685       C  0.79672058  0.24074345  0.91944968    -0.17090
C1686       C  0.75907953  0.24375606  0.93755456     0.11300
S1687       S  0.83318199  0.16818228  0.98540686    -0.32060
S1688       S  0.73036179  0.27127880  0.91582383    -0.32060
H1689       H  0.76094524  0.29196408  0.89342832     0.29300
H1690       H  0.80258174  0.14747393  0.00776117     0.29300
H1691       H  0.75635008  0.18501075  0.00796173     0.19890
H1692       H  0.80722252  0.25451298  0.89330864     0.19900
C1693       C  0.71606020  0.74080990  0.50277816     0.03320
C1694       C  0.68273040  0.75313384  0.49414308    -0.12830
C1695       C  0.67771039  0.79277473  0.50204919     0.00820
C1696       C  0.70835630  0.81907962  0.01736933    -0.11360
C1697       C  0.74037327  0.80431964  0.02826344     0.03310
C1698       C  0.73567478  0.76447720  0.03059519    -0.10780
H1699       H  0.66589725  0.73441363  0.47398177     0.08910
H1700       H  0.70888907  0.84999064  0.01684449     0.06440
H1701       H  0.75738119  0.75254810  0.04253228     0.06280
C1702       C  0.84645299  0.69893957  0.40027923     0.03320
C1703       C  0.87984011  0.68685044  0.40915000    -0.12830
C1704       C  0.88585880  0.64749812  0.39966408     0.00820
C1705       C  0.85499825  0.62107346  0.38433391    -0.11360
C1706       C  0.82291834  0.63577546  0.37351381     0.03310
C1707       C  0.82746917  0.67566888  0.37143808    -0.10780
H1708       H  0.89553993  0.70493512  0.43075541     0.08910
H1709       H  0.85459922  0.59014971  0.38467909     0.06440
H1710       H  0.80575699  0.68759643  0.35951297     0.06280
C1711       C  0.80222111  0.52174555  0.26549784     0.03320
C1712       C  0.82648118  0.54958639  0.24530089    -0.12830
C1713       C  0.86565243  0.54609615  0.24056944     0.00820
C1714       C  0.87961664  0.53436006  0.27272346    -0.11360
C1715       C  0.85312158  0.51943959  0.30402529     0.03310
C1716       C  0.81393482  0.51248660  0.29910558    -0.10780
H1717       H  0.81552859  0.56182886  0.22300711     0.08910
H1718       H  0.90996516  0.53255241  0.27183282     0.06440
H1719       H  0.79536035  0.99140344  0.31523895     0.06280
C1720       C  0.76148538  0.91822018  0.13584166     0.03320
C1721       C  0.74979860  0.92751255  0.10223655    -0.12830
C1722       C  0.71064264  0.92039555  0.09719792     0.00820
C1723       C  0.68412872  0.90537667  0.12843943    -0.11360
C1724       C  0.69808070  0.89366264  0.16061168     0.03310
C1725       C  0.73727000  0.89026434  0.15592301    -0.10780
H1726       H  0.76831364  0.94869270  0.08618128     0.08910
H1727       H  0.65376690  0.90709940  0.12928107     0.06440
H1728       H  0.74822185  0.87800073  0.17820278     0.06280
O1729       O  0.83622605  0.99362135  0.46044979    -0.72750
O1730       O  0.84473985  0.52487482  0.07821654    -0.73730
O1731       O  0.86607401  0.56040772  0.50662597    -0.62350
O1732       O  0.81488672  0.95326446  0.53052720    -0.70760
O1733       O  0.87395899  0.93695736  0.52249430    -0.70320
O1734       O  0.92350317  0.53914263  0.49769643    -0.61570
O1735       O  0.90234252  0.50440601  0.06612869    -0.74080
O1736       O  0.89346250  0.97275242  0.45362585    -0.72860
Cu1737     Cu  0.83803613  0.50860861  0.51966016     1.04560
Cu1738     Cu  0.89981423  0.98747858  0.50998697     1.04330
C1739       C  0.86493566  0.98003892  0.43838772     0.93440
C1740       C  0.87676350  0.52131267  0.08970638     0.92580
C1741       C  0.90256732  0.56516576  0.49549869     0.84730
C1742       C  0.83769824  0.92795667  0.53067268     0.91000
C1743       C  0.88767136  0.54624395  0.19985884     0.03320
C1744       C  0.86811885  0.53692006  0.16564391    -0.12830
C1745       C  0.88894384  0.53975217  0.12811760     0.00820
C1746       C  0.92778600  0.55434613  0.12587949    -0.11360
C1747       C  0.94848096  0.55264926  0.15639832     0.03310
C1748       C  0.92841676  0.55082304  0.19394539    -0.10780
H1749       H  0.83778161  0.52595432  0.16780053     0.08910
H1750       H  0.94335184  0.55957983  0.09747785     0.06440
H1751       H  0.94434121  0.55191856  0.21777205     0.06280
C1752       C  0.97822506  0.63214482  0.44071358     0.03320
C1753       C  0.95464983  0.64558719  0.41712228    -0.12830
C1754       C  0.91389072  0.63350691  0.42106010     0.00820
C1755       C  0.89763574  0.60966957  0.44950955    -0.11360
C1756       C  0.91997851  0.59756411  0.47382673     0.03310
C1757       C  0.95997377  0.60876203  0.46947098    -0.10780
H1758       H  0.96838044  0.66337447  0.39506424     0.08910
H1759       H  0.86698131  0.59939120  0.45208752     0.06440
H1760       H  0.97730995  0.59711204  0.48708977     0.06280
O1761       O  0.50942987  0.96299009  0.25081708    -0.72750
O1762       O  0.97989385  0.84522989  0.26386856    -0.73730
O1763       O  0.94296479  0.91522219  0.28108999    -0.62350
O1764       O  0.55017462  0.89276930  0.23256283    -0.70760
O1765       O  0.56534517  0.90549680  0.29256087    -0.70320
O1766       O  0.96244988  0.92548616  0.33967118    -0.61570
O1767       O  0.00012624  0.85998823  0.32174744    -0.74080
O1768       O  0.52731880  0.97224646  0.30983525    -0.72860
Cu1769     Cu  0.99509531  0.90342967  0.25451783     1.04560
Cu1770     Cu  0.51460873  0.91597897  0.31743295     1.04330
C1771       C  0.52155178  0.98620695  0.27965374     0.93440
C1772       C  0.98381455  0.83520921  0.29685297     0.92580
C1773       C  0.93673897  0.92540612  0.31791325     0.84730
C1774       C  0.57476349  0.89495334  0.25644326     0.91000
C1775       C  0.52963874  0.52966868  0.28011389     0.03320
C1776       C  0.56074443  0.54848495  0.29909694    -0.12830
C1777       C  0.56480890  0.58879441  0.31048006     0.00820
C1778       C  0.54021880  0.61153946  0.29913840    -0.11330
C1779       C  0.50827626  0.59436773  0.28093625     0.03310
C1780       C  0.00316172  0.55294021  0.27096497    -0.10780
H1781       H  0.57958544  0.53108750  0.30900066     0.08910
H1782       H  0.54396973  0.64279848  0.30774902     0.06440
H1783       H  0.97792704  0.53851533  0.25885055     0.06280
C1784       C  0.67604279  0.89351044  0.20131657     0.03320
C1785       C  0.63529182  0.88889979  0.20722568    -0.12830
C1786       C  0.61522425  0.88709857  0.24478059     0.00820
C1787       C  0.63593350  0.88547493  0.27531199    -0.11360
C1788       C  0.67478287  0.90005829  0.27305928     0.03310
C1789       C  0.69559499  0.90286484  0.23553080    -0.10780
H1790       H  0.61936772  0.88775311  0.18338430     0.08910
H1791       H  0.62037710  0.88024878  0.30371855     0.06440
H1792       H  0.72593005  0.91383030  0.23337482     0.06280
O1793       O  0.66141967  0.93528069  0.33510582    -0.72750
O1794       O  0.67033561  0.96684859  0.44757565    -0.73730
O1795       O  0.68997505  0.00277370  0.37880616    -0.62350
O1796       O  0.64033913  0.90049181  0.40337336    -0.70760
O1797       O  0.69776399  0.87923145  0.39445807    -0.70320
O1798       O  0.74903823  0.98646286  0.37074143    -0.61570
O1799       O  0.72757747  0.94599859  0.44076810    -0.74080
O1800       O  0.71907440  0.91493447  0.32290205    -0.72860
Cu1801     Cu  0.66404932  0.95221892  0.39120541     1.04560
Cu1802     Cu  0.72583987  0.93107560  0.38152675     1.04330
C1803       C  0.68700790  0.91845576  0.31146907     0.93440
C1804       C  0.69885307  0.95956604  0.46282455     0.92580
C1805       C  0.72623949  0.01178961  0.37062456     0.84730
C1806       C  0.66125720  0.87443054  0.40551297     0.91000
O1807       O  0.56350737  0.57958456  0.07937310    -0.72750
O1808       O  0.53628284  0.96735747  0.09138017    -0.73730
O1809       O  0.49829481  0.53412358  0.10861607    -0.62350
O1810       O  0.60114710  0.01409351  0.06150291    -0.70760
O1811       O  0.62064751  0.02442317  0.12008027    -0.70320
O1812       O  0.51349259  0.54688259  0.16860590    -0.61570
O1813       O  0.55419693  0.97664501  0.15038859    -0.74080
O1814       O  0.58373557  0.59438428  0.13725429    -0.72860
Cu1815     Cu  0.54900114  0.02360917  0.08373785     1.04560
Cu1816     Cu  0.56854583  0.53620523  0.14664983     1.04330
C1817       C  0.57981577  0.60437639  0.10425758     0.93440
C1818       C  0.54205367  0.95341490  0.12156986     0.92580
C1819       C  0.48890539  0.54471182  0.14472915     0.84730
C1820       C  0.62687069  0.01423177  0.08326034     0.91000
O1821       O  0.54331098  0.66536253  0.42097165    -0.72750
O1822       O  0.66188060  0.65872549  0.39110341    -0.73730
O1823       O  0.59294292  0.64132557  0.35275333    -0.62350
O1824       O  0.61125794  0.68467160  0.46315940    -0.70760
O1825       O  0.60248279  0.62346700  0.47556843    -0.70320
O1826       O  0.58466289  0.58132103  0.36950435    -0.61570
O1827       O  0.64921767  0.59906594  0.40814770    -0.74080
O1828       O  0.53699803  0.60534729  0.43675427    -0.72860
Cu1829     Cu  0.60301608  0.66511472  0.40657426     1.04560
Cu1830     Cu  0.59334785  0.60076989  0.42314843     1.04330
C1831       C  0.52157062  0.63506549  0.43235057     0.93440
C1832       C  0.67314059  0.62574656  0.39323939     0.92580
C1833       C  0.58363047  0.60453447  0.34486127     0.84730
C1834       C  0.60942646  0.65974962  0.48711779     0.91000
C1835       C  0.60573426  0.71397698  0.09041133     0.03320
C1836       C  0.59544768  0.68002890  0.11062349    -0.12830
C1837       C  0.59715168  0.64240139  0.09014984     0.00820
C1838       C  0.61110420  0.63943163  0.05065291    -0.11360
C1839       C  0.61307222  0.67054999  0.02912755     0.03310
C1840       C  0.61173639  0.70827302  0.04921725    -0.10780
H1841       H  0.58502271  0.68267292  0.14147187     0.08910
H1842       H  0.61527685  0.61067510  0.03555220     0.06440
H1843       H  0.61501190  0.73268540  0.03309551     0.06280
C1844       C  0.69619221  0.96640243  0.00641524     0.03320
C1845       C  0.67289531  0.99434600  0.02586154    -0.12830
C1846       C  0.66124301  0.99644454  0.06602620     0.00820
C1847       C  0.67438015  0.97214422  0.08777836    -0.11360
C1848       C  0.69763449  0.94388319  0.07015774     0.03310
C1849       C  0.70934814  0.94137994  0.02899671    -0.10780
H1850       H  0.66098827  0.01257029  0.00920687     0.08910
H1851       H  0.66474224  0.97403957  0.11887026     0.06440
H1852       H  0.72647873  0.91922717  0.01425321     0.06280
C1853       C  0.78259480  0.61374672  0.37222838     0.03320
C1854       C  0.77637707  0.57251474  0.36734919    -0.12830
C1855       C  0.73933893  0.55280672  0.36318785     0.00820
C1856       C  0.71010577  0.57460250  0.35982866    -0.11360
C1857       C  0.71181101  0.61359036  0.37554380     0.03310
C1858       C  0.74869433  0.63390213  0.38060242    -0.10780
H1859       H  0.79951815  0.55599974  0.36796119     0.08910
H1860       H  0.68244133  0.55949792  0.35279982     0.06440
H1861       H  0.75046929  0.66429204  0.39253006     0.06280
O1862       O  0.91448596  0.84050525  0.49298255    -0.72750
O1863       O  0.52668126  0.83433951  0.46429424    -0.73730
O1864       O  0.96109723  0.81603545  0.42558624    -0.62350
O1865       O  0.47866967  0.85834639  0.03187412    -0.70760
O1866       O  0.47045457  0.79834238  0.04861531    -0.70320
O1867       O  0.95217857  0.75482018  0.43800475    -0.61570
O1868       O  0.52038810  0.77431503  0.48004553    -0.74080
O1869       O  0.90179460  0.78086460  0.51009159    -0.72860
Cu1870     Cu  0.47032165  0.83882813  0.47795120     1.04560
Cu1871     Cu  0.96063594  0.77448356  0.49453753     1.04330
C1872       C  0.89056606  0.81385299  0.50793172     0.93440
C1873       C  0.54212769  0.80464170  0.46870339     0.92580
C1874       C  0.95399665  0.77975781  0.41406617     0.84730
C1875       C  0.47977148  0.83513370  0.05650056     0.91000
C1876       C  0.53394736  0.90996240  0.12114480     0.03320
C1877       C  0.50279490  0.89117687  0.10221248    -0.12830
C1878       C  0.49867183  0.85086618  0.09084275     0.00820
C1879       C  0.52325059  0.82809082  0.10216325    -0.11360
C1880       C  0.55524104  0.84522986  0.12031171     0.03310
C1881       C  0.56041743  0.88665906  0.13025551    -0.10780
H1882       H  0.48395832  0.90859755  0.09233519     0.08910
H1883       H  0.51945134  0.79683054  0.09357104     0.06440
H1884       H  0.58569887  0.90105548  0.14231043     0.06280
C1885       C  0.58549304  0.80761660  0.46039739     0.03320
C1886       C  0.60903061  0.79446074  0.48421858    -0.12830
C1887       C  0.64981010  0.80641780  0.48020800     0.00820
C1888       C  0.66616189  0.82977551  0.45136838    -0.11360
C1889       C  0.64381188  0.84195299  0.42709392     0.03310
C1890       C  0.60378544  0.83085922  0.43152794    -0.10780
H1891       H  0.59525563  0.77700804  0.50652622     0.08910
H1892       H  0.69688140  0.83975161  0.44853931     0.06440
H1893       H  0.58646452  0.84248494  0.41387623     0.06280
C1894       C  0.95774521  0.72557925  0.31067370     0.03320
C1895       C  0.95169754  0.73126666  0.35186494    -0.12830
C1896       C  0.95057798  0.76900532  0.37195336     0.00820
C1897       C  0.95255448  0.80013968  0.35045203    -0.11360
C1898       C  0.96646313  0.79717297  0.31094804     0.03310
C1899       C  0.96811072  0.75953570  0.29046751    -0.10780
H1900       H  0.94819703  0.70682931  0.36798686     0.08910
H1901       H  0.94844044  0.82889966  0.36557899     0.06440
H1902       H  0.97854619  0.75689025  0.25962199     0.06280
C1903       C  0.86750609  0.97336844  0.39478268     0.03320
C1904       C  0.85441469  0.49842848  0.37220749    -0.12830
C1905       C  0.86610859  0.49590641  0.33104374     0.00820
C1906       C  0.88928966  0.96759412  0.31341144    -0.11360
C1907       C  0.90239448  0.94325994  0.33515674     0.03310
C1908       C  0.89075207  0.94538013  0.37532668    -0.10780
H1909       H  0.83733479  0.52063077  0.38694400     0.08910
H1910       H  0.89890908  0.96567783  0.28231607     0.06440
H1911       H  0.90262935  0.92713170  0.39198047     0.06280
C1912       C  0.78076879  0.82618263  0.02939261     0.03320
C1913       C  0.78712234  0.86739288  0.03421531    -0.12830
C1914       C  0.82419393  0.88698166  0.03836174     0.00820
C1915       C  0.85333796  0.86508639  0.04175481    -0.11360
C1916       C  0.85152202  0.82609035  0.02602759     0.03310
C1917       C  0.81458193  0.80589094  0.02098303    -0.10780
H1918       H  0.76405085  0.88397871  0.03357884     0.08910
H1919       H  0.88103589  0.88011794  0.04876594     0.06440
H1920       H  0.81267992  0.77548930  0.00905413     0.06280
C1921       C  0.97232526  0.65948714  0.22261274     0.03320
C1922       C  0.98191900  0.62499614  0.23269213    -0.12830
C1923       C  0.98238422  0.62152872  0.27211236     0.00820
C1924       C  0.97134745  0.65348886  0.30018493    -0.11360
C1925       C  0.95633116  0.68509382  0.28842351     0.03310
C1926       C  0.94799399  0.68053677  0.25015911    -0.10780
H1927       H  0.49958139  0.60769493  0.21103005     0.08910
H1928       H  0.97851761  0.65557640  0.32935901     0.06440
H1929       H  0.93545734  0.70363465  0.24081586     0.06280
C1930       C  0.59136464  0.78009928  0.17851066     0.03320
C1931       C  0.61562161  0.75902878  0.15089864    -0.12830
C1932       C  0.60716152  0.75445929  0.11267356     0.00820
C1933       C  0.59208575  0.78605753  0.10097659    -0.11360
C1934       C  0.58115078  0.81804454  0.12906488     0.03310
C1935       C  0.58176484  0.81460709  0.16846776    -0.10780
H1936       H  0.62819172  0.73593085  0.16020239     0.08910
H1937       H  0.58478501  0.78394251  0.07185955     0.06440
H1938       H  0.56418696  0.83194342  0.19018113     0.06280
C1939       C  0.50490442  0.68626704  0.20561013    -0.05930
C1940       C  0.53871295  0.69338712  0.22403416    -0.17060
C1941       C  0.56529000  0.72666061  0.21959403     0.11260
C1942       C  0.55878878  0.75332676  0.19553631    -0.05860
C1943       C  0.52497179  0.74621150  0.17712606    -0.17090
C1944       C  0.49841061  0.71292570  0.18154286     0.11300
S1945       S  0.60771463  0.73489515  0.24429835    -0.32060
S1946       S  0.95601608  0.70466220  0.15679004    -0.32060
H1947       H  0.96273203  0.73966447  0.13980960     0.29300
H1948       H  0.60100592  0.69988181  0.26125961     0.29300
H1949       H  0.54335614  0.67398986  0.24388540     0.19890
H1950       H  0.52031615  0.76561434  0.15728814     0.19900
C1951       C  0.77969478  0.94976894  0.16285543    -0.05930
C1952       C  0.80115910  0.93742170  0.18826877    -0.17060
C1953       C  0.80144736  0.95547718  0.22646688     0.11260
C1954       C  0.78388957  0.99018142  0.23857448    -0.05860
C1955       C  0.76241317  0.00252291  0.21316925    -0.17090
C1956       C  0.76209756  0.98445151  0.17497787     0.11300
S1957       S  0.82020744  0.93035100  0.25984287    -0.32060
S1958       S  0.74322264  0.00952834  0.14164108    -0.32060
H1959       H  0.72277686  0.03466515  0.16968053     0.29300
H1960       H  0.84063211  0.90517074  0.23183235     0.29300
H1961       H  0.81322355  0.91017404  0.17968253     0.19890
H1962       H  0.75037789  0.52977612  0.22176222     0.19900
C1963       C  0.74298770  0.72260604  0.47104861    -0.05930
C1964       C  0.76598364  0.69802974  0.48253174    -0.17060
C1965       C  0.80381202  0.69558855  0.46456457     0.11260
C1966       C  0.81861299  0.71597504  0.43188987    -0.05860
C1967       C  0.79564532  0.74066623  0.42058661    -0.17090
C1968       C  0.75772933  0.74241746  0.43802964     0.11300
S1969       S  0.83295454  0.66864447  0.48642659    -0.32060
S1970       S  0.72956494  0.76863254  0.41454961    -0.32060
H1971       H  0.69935822  0.73769443  0.41221161     0.29300
H1972       H  0.80254245  0.64738457  0.50848217     0.29300
H1973       H  0.75568115  0.68434081  0.50875571     0.19890
H1974       H  0.80581086  0.75495808  0.39466401     0.19900
C1975       C  0.71653823  0.74112478  0.00193039     0.03320
C1976       C  0.68323864  0.75328379  0.99295811    -0.12830
C1977       C  0.67739096  0.79268818  0.00218635     0.00820
C1978       C  0.70905509  0.81912053  0.51647975    -0.11360
C1979       C  0.74090724  0.80434961  0.52765470     0.03310
C1980       C  0.73602760  0.76459698  0.53058468    -0.10780
H1981       H  0.66749412  0.73515144  0.97142396     0.08910
H1982       H  0.70993172  0.84995418  0.51526733     0.06440
H1983       H  0.75782449  0.75272587  0.54244200     0.06280
C1984       C  0.84707177  0.69843426  0.89934888     0.03320
C1985       C  0.88037394  0.68628840  0.90833340    -0.12830
C1986       C  0.88625031  0.64689202  0.89907851     0.00820
C1987       C  0.85529955  0.62049283  0.88387476    -0.11360
C1988       C  0.82327981  0.63524507  0.87297669     0.03310
C1989       C  0.82796901  0.67508862  0.87065623    -0.10780
H1990       H  0.89609995  0.70441807  0.92988486     0.08910
H1991       H  0.85477703  0.58958131  0.88438810     0.06440
H1992       H  0.80626500  0.68701239  0.85870998     0.06280
C1993       C  0.80223241  0.52135920  0.76534378     0.03320
C1994       C  0.82646200  0.54929645  0.74524930    -0.12830
C1995       C  0.86564981  0.54589668  0.74057666     0.00820
C1996       C  0.87958573  0.53418033  0.77275866    -0.11360
C1997       C  0.85306107  0.51917640  0.80400237     0.03310
C1998       C  0.81390525  0.51208030  0.79896212    -0.10780
H1999       H  0.81551895  0.56156053  0.72296466     0.08910
H2000       H  0.90994345  0.53245444  0.77193063     0.06440
H2001       H  0.79535608  0.99090610  0.81502896     0.06280
C2002       C  0.76148788  0.91778897  0.63572225     0.03320
C2003       C  0.74978605  0.92704318  0.60210791    -0.12830
C2004       C  0.71059746  0.92013336  0.59719778     0.00820
C2005       C  0.68408730  0.90523241  0.62850370    -0.11360
C2006       C  0.69803728  0.89348689  0.66066100     0.03310
C2007       C  0.73720459  0.88997563  0.65593681    -0.10780
H2008       H  0.76837032  0.94808582  0.58593742     0.08910
H2009       H  0.65373753  0.90705327  0.62939359     0.06440
H2010       H  0.74814540  0.87773109  0.67823669     0.06280
O2011       O  0.83618095  0.99351855  0.96043442    -0.72750
O2012       O  0.84481052  0.52481377  0.57826060    -0.73730
O2013       O  0.86622659  0.56029440  0.00647467    -0.62350
O2014       O  0.81463833  0.95330243  0.03060001    -0.70760
O2015       O  0.87364190  0.93684411  0.02263374    -0.70320
O2016       O  0.92357311  0.53886507  0.99765235    -0.61570
O2017       O  0.90249339  0.50452543  0.56607533    -0.74080
O2018       O  0.89333854  0.97249423  0.95368363    -0.72860
Cu2019     Cu  0.83798115  0.50859060  0.01962473     1.04560
Cu2020     Cu  0.89968595  0.98727619  0.01004033     1.04330
C2021       C  0.86486016  0.97984376  0.93840923     0.93440
C2022       C  0.87687697  0.52132247  0.58970531     0.92580
C2023       C  0.90272809  0.56493219  0.99534880     0.84730
C2024       C  0.83736765  0.92793598  0.03082394     0.91000
C2025       C  0.88771639  0.54610173  0.69988568     0.03320
C2026       C  0.86819766  0.53680705  0.66564692    -0.12830
C2027       C  0.88904218  0.53970044  0.62814191     0.00820
C2028       C  0.92787732  0.55432046  0.62594497    -0.11360
C2029       C  0.94855755  0.55259316  0.65646859     0.03310
C2030       C  0.92846610  0.55070211  0.69400235    -0.10780
H2031       H  0.83786833  0.52581585  0.66776350     0.08910
H2032       H  0.94345652  0.55960767  0.59756291     0.06440
H2033       H  0.94437050  0.55176072  0.71783801     0.06280
C2034       C  0.97851938  0.63185384  0.94052491     0.03320
C2035       C  0.95497765  0.64518398  0.91681951    -0.12830
C2036       C  0.91424014  0.63297007  0.92059433     0.00820
C2037       C  0.89795054  0.60917091  0.94906336    -0.11360
C2038       C  0.92022853  0.59721402  0.97353901     0.03310
C2039       C  0.96022582  0.60845831  0.96926881    -0.10780
H2040       H  0.96872627  0.66301543  0.89481147     0.08910
H2041       H  0.86730940  0.59883939  0.95157234     0.06440
H2042       H  0.97752680  0.59687753  0.98697400     0.06280
O2043       O  0.50945552  0.96291830  0.75086509    -0.72750
O2044       O  0.97994076  0.84517030  0.76398844    -0.73730
O2045       O  0.94301115  0.91512617  0.78115912    -0.62350
O2046       O  0.55018002  0.89269340  0.73263347    -0.70760
O2047       O  0.56538258  0.90543159  0.79262117    -0.70320
O2048       O  0.96251059  0.92546447  0.83973716    -0.61570
O2049       O  0.00016661  0.85997210  0.82186981    -0.74080
O2050       O  0.52738205  0.97219821  0.80986781    -0.72860
Cu2051     Cu  0.99512626  0.90335631  0.75459521     1.04560
Cu2052     Cu  0.51466079  0.91594582  0.81750414     1.04330
C2053       C  0.52160442  0.98614519  0.77968366     0.93440
C2054       C  0.98385735  0.83517886  0.79698727     0.92580
C2055       C  0.93678765  0.92532368  0.81797719     0.84730
C2056       C  0.57477012  0.89485467  0.75650457     0.91000
C2057       C  0.52971985  0.52960017  0.78011753     0.03320
C2058       C  0.56087638  0.54838770  0.79904252    -0.12830
C2059       C  0.56499645  0.58869866  0.81041395     0.00820
C2060       C  0.54041241  0.61147241  0.79909971    -0.11330
C2061       C  0.50841427  0.59433074  0.78096639     0.03310
C2062       C  0.00323968  0.55290123  0.77102405    -0.10780
H2063       H  0.57971779  0.53096860  0.80891459     0.08910
H2064       H  0.54421144  0.64273297  0.80769030     0.06440
H2065       H  0.97795321  0.53850104  0.75898832     0.06280
C2066       C  0.67600825  0.89333463  0.70136744     0.03320
C2067       C  0.63526152  0.88874841  0.70727647    -0.12830
C2068       C  0.61519465  0.88691536  0.74482471     0.00820
C2069       C  0.63588920  0.88520439  0.77533972    -0.11360
C2070       C  0.67472881  0.89980498  0.77310722     0.03310
C2071       C  0.69555574  0.90265409  0.73558503    -0.10780
H2072       H  0.61934188  0.88764827  0.68344370     0.08910
H2073       H  0.62032365  0.87995947  0.80373865     0.06440
H2074       H  0.72589133  0.91362748  0.73343315     0.06280
O2075       O  0.66132069  0.93514570  0.83509615    -0.72750
O2076       O  0.67030807  0.96706742  0.94753806    -0.73730
O2077       O  0.69000821  0.00270773  0.87858483    -0.62350
O2078       O  0.64008440  0.90069376  0.90357698    -0.70760
O2079       O  0.69743087  0.87926575  0.89476390    -0.70320
O2080       O  0.74901353  0.98625300  0.87061470    -0.61570
O2081       O  0.72746859  0.94604860  0.94078705    -0.74080
O2082       O  0.71892373  0.91467691  0.82301334    -0.72860
Cu2083     Cu  0.66396250  0.95227859  0.89118158     1.04560
Cu2084     Cu  0.72568042  0.93096829  0.88160189     1.04330
C2085       C  0.68690223  0.91824040  0.81152075     0.93440
C2086       C  0.69878918  0.95972341  0.96281158     0.92580
C2087       C  0.72628208  0.01161882  0.87039469     0.84730
C2088       C  0.66092860  0.87462856  0.90588852     0.91000
O2089       O  0.56363695  0.57953438  0.57944920    -0.72750
O2090       O  0.53631676  0.96733998  0.59140662    -0.73730
O2091       O  0.49839401  0.53412407  0.60867688    -0.62350
O2092       O  0.60121883  0.01401799  0.56153753    -0.70760
O2093       O  0.62071908  0.02430491  0.62011309    -0.70320
O2094       O  0.51358237  0.54683279  0.66867116    -0.61570
O2095       O  0.55422727  0.97657689  0.65041603    -0.74080
O2096       O  0.58385854  0.59430709  0.63733540    -0.72860
Cu2097     Cu  0.54907834  0.02357458  0.58378899     1.04560
Cu2098     Cu  0.56863516  0.53612924  0.64669986     1.04330
C2099       C  0.57994242  0.60431129  0.60434406     0.93440
C2100       C  0.54206690  0.95337533  0.62158938     0.92580
C2101       C  0.48899521  0.54468007  0.64479620     0.84730
C2102       C  0.62693766  0.01411575  0.58329055     0.91000
O2103       O  0.54361193  0.66521525  0.92090845    -0.72750
O2104       O  0.66224411  0.65868084  0.89087699    -0.73730
O2105       O  0.59320719  0.64122263  0.85264374    -0.62350
O2106       O  0.61173681  0.68470310  0.96300133    -0.70760
O2107       O  0.60291262  0.62349211  0.97541372    -0.70320
O2108       O  0.58498726  0.58121919  0.86938729    -0.61570
O2109       O  0.64959155  0.59904016  0.90797536    -0.74080
O2110       O  0.53736334  0.60520329  0.93667925    -0.72860
Cu2111     Cu  0.60336417  0.66505139  0.90643644     1.04560
Cu2112     Cu  0.59372917  0.60071396  0.92302271     1.04330
C2113       C  0.52189197  0.63488473  0.93226141     0.93440
C2114       C  0.67350197  0.62569564  0.89301266     0.92580
C2115       C  0.58389178  0.60443112  0.84475841     0.84730
C2116       C  0.60987463  0.65977751  0.98696323     0.91000
C2117       C  0.60554568  0.71391857  0.59058287     0.03320
C2118       C  0.59548134  0.67995601  0.61078848    -0.12830
C2119       C  0.59722161  0.64235481  0.59026667     0.00820
C2120       C  0.61106020  0.63943728  0.55074168    -0.11360
C2121       C  0.61272496  0.67052848  0.52926003     0.03310
C2122       C  0.61124459  0.70821418  0.54938906    -0.10780
H2123       H  0.58516885  0.68255900  0.64166123     0.08910
H2124       H  0.61531294  0.61071509  0.53559830     0.06440
H2125       H  0.61414531  0.73259574  0.53329543     0.06280
C2126       C  0.69624627  0.96623214  0.50643355     0.03320
C2127       C  0.67294983  0.99418141  0.52588076    -0.12830
C2128       C  0.66129240  0.99628650  0.56604750     0.00820
C2129       C  0.67440921  0.97196741  0.58779688    -0.11360
C2130       C  0.69763736  0.94367929  0.57017246     0.03310
C2131       C  0.70937671  0.94119654  0.52901612    -0.10780
H2132       H  0.66105750  0.01241544  0.50922431     0.08910
H2133       H  0.66478007  0.97387820  0.61889027     0.06440
H2134       H  0.72651402  0.91905325  0.51427721     0.06280
C2135       C  0.78288543  0.61337799  0.87184753     0.03320
C2136       C  0.77653537  0.57216750  0.86701074    -0.12830
C2137       C  0.73946212  0.55257831  0.86287002     0.00820
C2138       C  0.71031123  0.57447538  0.85949913    -0.11360
C2139       C  0.71212890  0.61346911  0.87523356     0.03310
C2140       C  0.74907051  0.63366728  0.88027096    -0.10780
H2141       H  0.79961145  0.55558238  0.86763234     0.08910
H2142       H  0.68261062  0.55944608  0.85249363     0.06440
H2143       H  0.75097262  0.66406728  0.89220383     0.06280
O2144       O  0.91405978  0.84052348  0.99329227    -0.72750
O2145       O  0.52628589  0.83436975  0.96457503    -0.73730
O2146       O  0.96073083  0.81607926  0.92585010    -0.62350
O2147       O  0.47904689  0.85832669  0.53158656    -0.70760
O2148       O  0.47078439  0.79831834  0.54832370    -0.70320
O2149       O  0.95190802  0.75486715  0.93826069    -0.61570
O2150       O  0.52004088  0.77435695  0.98034352    -0.74080
O2151       O  0.90140986  0.78088228  0.01038944    -0.72860
Cu2152     Cu  0.46992052  0.83885450  0.97823955     1.04560
Cu2153     Cu  0.96028931  0.77451609  0.99482348     1.04330
C2154       C  0.89015045  0.81386646  0.00825344     0.93440
C2155       C  0.54175879  0.80468888  0.96899084     0.92580
C2156       C  0.95376905  0.77979410  0.91430020     0.84730
C2157       C  0.48006193  0.83511190  0.55623593     0.91000
C2158       C  0.53393946  0.90992905  0.62113588     0.03320
C2159       C  0.50287972  0.89115339  0.60205717    -0.12830
C2160       C  0.49878385  0.85084668  0.59068406     0.00820
C2161       C  0.52325029  0.82806513  0.60216323    -0.11360
C2162       C  0.55517161  0.84519972  0.62041742     0.03310
C2163       C  0.56034051  0.88662449  0.63036799    -0.10780
H2164       H  0.48411118  0.90857514  0.59207759     0.08910
H2165       H  0.51944487  0.79680177  0.59359215     0.06440
H2166       H  0.58557076  0.90101747  0.64251652     0.06280
C2167       C  0.58513091  0.80772173  0.96072811     0.03320
C2168       C  0.60867000  0.79440037  0.98444137    -0.12830
C2169       C  0.64940729  0.80661059  0.98066453     0.00820
C2170       C  0.66570132  0.83039710  0.95218502    -0.11360
C2171       C  0.64342494  0.84235155  0.92770587     0.03310
C2172       C  0.60342621  0.83111094  0.93197893    -0.10780
H2173       H  0.59492050  0.77657808  0.00645768     0.08910
H2174       H  0.69634483  0.84071860  0.94966887     0.06440
H2175       H  0.58612575  0.84268844  0.91427076     0.06280
C2176       C  0.95790769  0.72558074  0.81086365     0.03320
C2177       C  0.95189745  0.73129454  0.85205569    -0.12830
C2178       C  0.95057600  0.76902157  0.87213594     0.00820
C2179       C  0.95256441  0.80013811  0.85060305    -0.11360
C2180       C  0.96651400  0.79715678  0.81110429     0.03310
C2181       C  0.96820319  0.75952187  0.79064022    -0.10780
H2182       H  0.94860139  0.70688479  0.86818346     0.08910
H2183       H  0.94840382  0.82889913  0.86569885     0.06440
H2184       H  0.97862104  0.75686572  0.75979096     0.06280
C2185       C  0.86746083  0.97316618  0.89480419     0.03320
C2186       C  0.85433210  0.49819509  0.87221609    -0.12830
C2187       C  0.86605311  0.49568653  0.83105446     0.00820
C2188       C  0.88928897  0.96741826  0.81344277    -0.11360
C2189       C  0.90241629  0.94311688  0.83520207     0.03310
C2190       C  0.89075480  0.94521758  0.87536427    -0.10780
H2191       H  0.83720622  0.52035367  0.88695418     0.08910
H2192       H  0.89893295  0.96551903  0.78235183     0.06440
H2193       H  0.90265361  0.92699046  0.89202277     0.06280
C2194       C  0.78126285  0.82618013  0.52883901     0.03320
C2195       C  0.78757695  0.86738167  0.53381609    -0.12830
C2196       C  0.82460862  0.88696798  0.53807187     0.00820
C2197       C  0.85376854  0.86507440  0.54140699    -0.11360
C2198       C  0.85195395  0.82607815  0.52565761     0.03310
C2199       C  0.81504546  0.80588300  0.52050197    -0.10780
H2200       H  0.76449766  0.88398298  0.53325089     0.08910
H2201       H  0.88145828  0.88011049  0.54843723     0.06440
H2202       H  0.81312351  0.77547953  0.50856728     0.06280
C2203       C  0.97224298  0.65944221  0.72278287     0.03320
C2204       C  0.98186039  0.62494177  0.73282398    -0.12830
C2205       C  0.98249449  0.62151231  0.77222461     0.00820
C2206       C  0.97156761  0.65350401  0.80031178    -0.11360
C2207       C  0.95647160  0.68509162  0.78861729     0.03310
C2208       C  0.94798549  0.68050575  0.75040181    -0.10780
H2209       H  0.49943914  0.60760984  0.71110674     0.08910
H2210       H  0.97888965  0.65563244  0.82942165     0.06440
H2211       H  0.93540046  0.70359740  0.74110471     0.06280
C2212       C  0.59122840  0.78007660  0.67867183     0.03320
C2213       C  0.61547799  0.75899380  0.65106333    -0.12830
C2214       C  0.60699414  0.75440229  0.61284606     0.00820
C2215       C  0.59197392  0.78602165  0.60113215    -0.11360
C2216       C  0.58104629  0.81801249  0.62921123     0.03310
C2217       C  0.58162763  0.81457642  0.66861719    -0.10780
H2218       H  0.62806527  0.73591468  0.66037690     0.08910
H2219       H  0.58470126  0.78392957  0.57200452     0.06440
H2220       H  0.56402739  0.83190269  0.69031327     0.06280
C2221       C  0.50480681  0.68622476  0.70575338    -0.05930
C2222       C  0.53863794  0.69333508  0.72414196    -0.17060
C2223       C  0.56518312  0.72663427  0.71973875     0.11260
C2224       C  0.55865646  0.75331395  0.69571112    -0.05860
C2225       C  0.52482586  0.74620626  0.67732212    -0.17090
C2226       C  0.49827526  0.71291090  0.68173262     0.11300
S2227       S  0.60760592  0.73488498  0.74444778    -0.32060
S2228       S  0.95584286  0.70467436  0.65703955    -0.32060
H2229       H  0.96252821  0.73970001  0.64010079     0.29300
H2230       H  0.60091530  0.69986823  0.76140192     0.29300
H2231       H  0.54331978  0.67391545  0.74395129     0.19890
H2232       H  0.52014964  0.76562502  0.65750755     0.19900
C2233       C  0.77981890  0.94935785  0.66262680    -0.05930
C2234       C  0.80127219  0.93701463  0.68805195    -0.17060
C2235       C  0.80158127  0.95510160  0.72623859     0.11260
C2236       C  0.78399860  0.98979607  0.73833654    -0.05860
C2237       C  0.76255701  0.00214353  0.71290229    -0.17090
C2238       C  0.76228599  0.98407996  0.67470592     0.11300
S2239       S  0.82042690  0.93003072  0.75960095    -0.32060
S2240       S  0.74357861  0.00921258  0.64129683    -0.32060
H2241       H  0.72316851  0.03442665  0.66928274     0.29300
H2242       H  0.84087326  0.90487839  0.73157941     0.29300
H2243       H  0.81330323  0.90974653  0.67948916     0.19890
H2244       H  0.75053247  0.52941083  0.72146159     0.19900
C2245       C  0.74421202  0.72373028  0.97042523    -0.05930
C2246       C  0.76684800  0.69877535  0.98181568    -0.17060
C2247       C  0.80448545  0.69575060  0.96370549     0.11260
C2248       C  0.81936571  0.71579520  0.93084492    -0.05860
C2249       C  0.79672549  0.74074476  0.91945091    -0.17090
C2250       C  0.75908357  0.74375818  0.93755282     0.11300
S2251       S  0.83317557  0.66817491  0.98540724    -0.32060
S2252       S  0.73037074  0.77128672  0.91582266    -0.32060
H2253       H  0.76095682  0.79196961  0.89342809     0.29300
H2254       H  0.80257281  0.64746876  0.00776055     0.29300
H2255       H  0.75634410  0.68500763  0.00795764     0.19890
H2256       H  0.80723072  0.75451577  0.89331135     0.19900
loop_ 
_geom_bond_atom_site_label_1 
_geom_bond_atom_site_label_2 
_geom_bond_distance 
_geom_bond_site_symmetry_2 
_ccdc_geom_bond_type 
C1            C2   1.397       .  A
C1          C288   1.392       .  A
C1          C271   1.482       .  S
C2            C3   1.404       .  A
C2            H7   1.077       .  S
C3          C286   1.437       .  A
C3          C195   1.499       .  S
C4            C5   1.429       .  A
C4          C285   1.438       .  A
C4            H8   1.079       .  S
C5            C6   1.389       .  A
C5          C220   1.520       .  S
C6          C283   1.392       .  A
C6            H9   1.083       .  S
C10          C11   1.398       .  A
C10          C15   1.392       .  A
C10         C274   1.482       .  S
C11          C12   1.406       .  A
C11          H16   1.080       .  S
C12          C13   1.438       .  A
C12          C62   1.498       .  S
C13          C14   1.429       .  A
C13          H17   1.079       .  S
C14          C15   1.389       .  A
C14         C161   1.520       .  S
C15          H18   1.083       .  S
C19          C20   1.395       .  A
C19          C24   1.396       .  A
C19         C826   1.483   1_545  S
C20          C21   1.389       .  A
C20          H25   1.083       .  S
C21          C22   1.425       .  A
C21          C51   1.516       .  S
C22          C23   1.433       .  A
C22          H26   1.078       .  S
C23          C24   1.402       .  A
C23         C213   1.496   1_545  S
C24         H591   1.075   1_545  S
H27         C588   1.075       .  S
C28          C29   1.396       .  A
C28          C33   1.395       .  A
C28         C259   1.483       .  S
C29          C30   1.402       .  A
C29          H34   1.075       .  S
C30          C31   1.434       .  A
C30         C156   1.496       .  S
C31          C32   1.425       .  A
C31          H35   1.078       .  S
C32          C33   1.389       .  A
C32          C92   1.516       .  S
C33          H36   1.083       .  S
O37          C47   1.283       .  A
O37        Cu609   2.070       .  S
O38          C48   1.283       .  A
O38        Cu327   2.086       .  S
O39          C49   1.282       .  A
O39         Cu45   2.008       .  S
O40          C50   1.280       .  A
O40        Cu609   2.049       .  S
O41          C50   1.272       .  A
O41         Cu46   1.940       .  S
O42          C49   1.268       .  A
O42        Cu610   1.952   1_545  S
O43          C48   1.279       .  A
O43        Cu892   1.979   1_545  S
O44          C47   1.280       .  A
O44         Cu46   2.002       .  S
Cu45        O601   2.070   1_545  S
Cu45        O320   2.087       .  S
Cu45        O604   2.049   1_545  S
Cu45       Cu610   2.365   1_545  S
Cu46        O606   1.952       .  S
Cu46        O889   1.979       .  S
Cu46       Cu609   2.365       .  S
C47         C211   1.500       .  S
C48          C53   1.500       .  S
C49          C64   1.460       .  S
C50         C504   1.485       .  S
C51          C52   1.444       .  A
C51          C56   1.411       .  A
C52          C53   1.413       .  A
C52          H57   1.079       .  S
C53          C54   1.386       .  A
C54          C55   1.393       .  A
C54          H58   1.086       .  S
C55          C56   1.400       .  A
C55        C1255   1.479       .  S
C56          H59   1.066       .  S
C60          C61   1.422       .  A
C60          C65   1.406       .  A
C60        C1267   1.505       .  S
C61          C62   1.431       .  A
C61          H66   1.073       .  S
C62          C63   1.391       .  A
C63          C64   1.387       .  A
C63          H67   1.084       .  S
C64          C65   1.400       .  A
C65          H68   1.085       .  S
O69          C79   1.286       .  A
O69       Cu1205   2.085   1_455  S
O70          C80   1.284       .  A
O70         Cu77   2.083       .  S
O71          C81   1.280       .  A
O71         Cu77   2.004       .  S
O72          C82   1.280       .  A
O72       Cu1205   2.046   1_455  S
O73          C82   1.272       .  A
O73         Cu78   1.931       .  S
O74          C81   1.269       .  A
O74       Cu1206   1.943       .  S
O75          C80   1.277       .  A
O75       Cu1206   1.968       .  S
O76          C79   1.277       .  A
O76         Cu78   1.996       .  S
Cu77       O1197   2.085       .  S
Cu77       O1200   2.046       .  S
Cu77      Cu1206   2.366       .  S
Cu78       O1202   1.943   1_455  S
Cu78       O1203   1.968       .  S
Cu78      Cu1205   2.366   1_455  S
C79         C647   1.500       .  S
C80         C206   1.496       .  S
C81         C215   1.454       .  S
C82          C94   1.479       .  S
C83          C84   1.402       .  A
C83        C1216   1.421       .  A
C83         C643   1.500   1_545  S
C84          C85   1.399       .  A
C84          H89   1.085       .  S
C85          C86   1.391       .  A
C85         C141   1.461       .  S
C86          C87   1.396       .  A
C86          H90   1.084       .  S
C87        C1216   1.430       .  A
C87        C1359   1.500   1_455  S
C88        C1211   1.421       .  A
C88        C1215   1.430       .  A
C88          H91   1.072       .  S
C92          C93   1.411       .  A
C92          C97   1.444       .  A
C93          C94   1.400       .  A
C93          H98   1.067       .  S
C94          C95   1.393       .  A
C95          C96   1.386       .  A
C95          H99   1.086       .  S
C96          C97   1.413       .  A
C96         C111   1.500       .  S
C97         H100   1.079       .  S
O101        C111   1.279       .  A
O101       Cu109   1.978       .  S
O102        C112   1.279       .  A
O102       Cu109   2.002       .  S
O103        C113   1.272       .  A
O103       Cu109   1.941       .  S
O104        C114   1.269       .  A
O104       Cu109   1.953       .  S
O105        C114   1.282       .  A
O105       Cu110   2.009       .  S
O106        C113   1.280       .  A
O106       Cu110   2.050       .  S
O107        C112   1.283       .  A
O107       Cu110   2.070       .  S
O108        C111   1.283       .  A
O108       Cu110   2.087       .  S
Cu109      Cu110   2.365       .  S
C112        C434   1.500       .  S
C113        C727   1.486       .  S
C114        C197   1.461       .  S
O115        C125   1.277       .  A
O115       Cu687   1.968       .  S
O116        C126   1.277       .  A
O116       Cu123   1.996       .  S
O117        C127   1.272       .  A
O117       Cu687   1.931   1_655  S
O118        C128   1.269       .  A
O118       Cu123   1.943       .  S
O119        C128   1.280       .  A
O119       Cu688   2.003       .  S
O120        C127   1.280   1_455  A
O120       Cu124   2.046       .  S
O121        C126   1.286       .  A
O121       Cu688   2.085       .  S
O122        C125   1.284       .  A
O122       Cu124   2.083       .  S
Cu123       O679   1.968       .  S
Cu123       O681   1.931   1_455  S
Cu123      Cu688   2.367       .  S
Cu124       O683   2.003       .  S
Cu124       O685   2.085   1_545  S
Cu124      Cu687   2.367       .  S
C125        C145   1.496       .  S
C126        C184   1.500       .  S
C127       C1183   1.479       .  S
C128        C154   1.454       .  S
O129        C139   1.287       .  A
O129       Cu137   2.093       .  S
O130        C140   1.286       .  A
O130       Cu137   2.103       .  S
O131        C141   1.280       .  A
O131       Cu137   2.007       .  S
O132        C142   1.279       .  A
O132       Cu137   2.049       .  S
O133        C142   1.273       .  A
O133       Cu138   1.945       .  S
O134        C141   1.271       .  A
O134       Cu138   1.955       .  S
O135        C140   1.276       .  A
O135       Cu138   1.970       .  S
O136        C139   1.277       .  A
O136       Cu138   1.999       .  S
Cu137      Cu138   2.363       .  S
C139       C1188   1.505   1_455  S
C140        C165   1.505       .  S
C142        C429   1.486       .  S
C143        C144   1.439       .  A
C143        C148   1.413       .  A
C143        C240   1.511       .  S
C144        C145   1.408       .  A
C144        H149   1.081       .  S
C145        C146   1.389       .  A
C146        C147   1.395       .  A
C146        H150   1.085       .  S
C147        C148   1.405       .  A
C147        C424   1.486   1_554  S
C148        H151   1.070       .  S
C152        C153   1.402       .  A
C152        C157   1.423       .  A
C152        C394   1.500   1_554  S
C153        C154   1.397       .  A
C153        H158   1.085       .  S
C154        C155   1.384       .  A
C155        C156   1.392       .  A
C155        H159   1.084       .  S
C156        C157   1.430       .  A
C157        H160   1.076       .  S
C161        C162   1.414       .  A
C161        C166   1.447       .  A
C162        C163   1.404       .  A
C162        H167   1.070       .  S
C163        C164   1.396       .  A
C163        C677   1.486       .  S
C164        C165   1.390       .  A
C164        H168   1.085       .  S
C165        C166   1.412       .  A
C166        H169   1.080       .  S
O170        C180   1.276       .  A
O170      Cu1306   1.969       .  S
O171        C181   1.277       .  A
O171       Cu178   1.998   1_455  S
O172        C182   1.274       .  A
O172      Cu1306   1.945       .  S
O173        C183   1.271       .  A
O173       Cu460   1.956   1_554  S
O174        C183   1.280       .  A
O174      Cu1589   2.007   1_554  S
O175        C182   1.279       .  A
O175       Cu179   2.049       .  S
O176        C181   1.288       .  A
O176      Cu1307   2.094   1_455  S
O177        C180   1.286       .  A
O177       Cu179   2.102       .  S
Cu178      O1298   1.969       .  S
Cu178      O1300   1.945       .  S
Cu178       O455   1.956       .  S
Cu178     Cu1307   2.363       .  S
Cu179      O1584   2.007       .  S
Cu179      O1304   2.094       .  S
Cu179     Cu1306   2.363       .  S
C180        C506   1.504       .  S
C181        C193   1.506       .  S
C182        C204   1.485       .  S
C183        C186   1.462       .  S
C184        C185   1.402       .  A
C184        C189   1.421       .  A
C185        C186   1.399   1_455  A
C185        H190   1.085   1_455  S
C186        C187   1.391   1_655  A
C187        C188   1.396       .  A
C187        H191   1.084       .  S
C188        C189   1.430       .  A
C188        C242   1.500       .  S
C189        H192   1.072       .  S
C193        C194   1.422       .  A
C193        C198   1.406       .  A
C194        C195   1.431       .  A
C194        H199   1.072       .  S
C195        C196   1.391       .  A
C196        C197   1.387       .  A
C196        H200   1.084       .  S
C197        C198   1.401       .  A
C198        H201   1.085       .  S
C202        C203   1.413       .  A
C202        C207   1.439       .  A
C202        C233   1.511       .  S
C203        C204   1.405       .  A
C203        H208   1.070       .  S
C204        C205   1.395       .  A
C205        C206   1.389       .  A
C205        H209   1.085       .  S
C206        C207   1.409       .  A
C207        H210   1.081       .  S
C211        C216   1.402       .  A
C211        C776   1.423       .  A
C212        C213   1.430       .  A
C212        C775   1.423       .  A
C212        H217   1.076   1_565  S
C213        C778   1.392       .  A
C214        C215   1.384       .  A
C214        C777   1.392       .  A
C214        H218   1.084       .  S
C215        C216   1.397       .  A
C216        H219   1.085       .  S
C220        C221   1.413       .  A
C220        C225   1.447       .  A
C221        C222   1.404       .  A
C221        H226   1.070       .  S
C222        C223   1.396       .  A
C222        C332   1.485       .  S
C223        C224   1.390       .  A
C223        H227   1.085       .  S
C224        C225   1.413       .  A
C224        C462   1.505       .  S
C225        H228   1.080       .  S
C229        C230   1.401       .  A
C229        C234   1.392       .  A
C229       C1375   1.480       .  S
C230        C231   1.403       .  A
C230       H1363   1.079       .  S
C231        C232   1.435       .  A
C231       C1215   1.500       .  S
C232        C233   1.425       .  A
C232        H236   1.077       .  S
C233        C234   1.395       .  A
C234        H237   1.084       .  S
H235       C1358   1.079       .  S
C238        C239   1.392       .  A
C238        C243   1.401       .  A
C238        C250   1.480       .  S
C239        C240   1.395       .  A
C239        H244   1.084       .  S
C240        C241   1.425       .  A
C241        C242   1.435       .  A
C241        H245   1.077       .  S
C242        C243   1.403       .  A
C243        H246   1.079       .  S
C247        C248   1.415       .  A
C247        C252   1.403   1_455  A
C247       C1357   1.480   1_455  S
C248        C249   1.394       .  A
C248        H257   1.080       .  S
C249        C250   1.403       .  A
C249        S253   1.807       .  S
C250        C251   1.415       .  A
C251        C252   1.394   1_455  A
C251        H258   1.080       .  S
C252       S1382   1.807       .  S
S253        H256   1.407       .  S
S254       C1380   1.807       .  S
S254        H255   1.407       .  S
C259        C260   1.399       .  A
C259        C264   1.423       .  A
C260        C261   1.394       .  A
C260        H269   1.083       .  S
C261        C262   1.423       .  A
C261        S265   1.806       .  S
C262        C263   1.398       .  A
C262        C583   1.483       .  S
C263        C264   1.394       .  A
C263        H834   1.083       .  S
C264        S266   1.806       .  S
S265        H268   1.406       .  S
S266        H267   1.406       .  S
H270        C827   1.083       .  S
C271        C272   1.398       .  A
C271        C276   1.422       .  A
C272        C273   1.396       .  A
C272        H281   1.084       .  S
C273        C274   1.424       .  A
C273        S277   1.803       .  S
C274        C275   1.397       .  A
C275        C276   1.391       .  A
C275        H282   1.085       .  S
C276        S278   1.795       .  S
S277        H280   1.407       .  S
S278        H279   1.406       .  S
C283        C284   1.398   1_554  A
C283        C553   1.481   1_554  S
C284        C285   1.405   1_556  A
C284        H289   1.079       .  S
C285        C477   1.499   1_554  S
C286        C287   1.429       .  A
C286        H290   1.079       .  S
C287        C288   1.390       .  A
C287        C502   1.518       .  S
C288        H291   1.083       .  S
C292        C293   1.398       .  A
C292        C297   1.392       .  A
C292        C556   1.481       .  S
C293        C294   1.405       .  A
C293        H298   1.079       .  S
C294        C295   1.438       .  A
C294        C344   1.499       .  S
C295        C296   1.429       .  A
C295        H299   1.079       .  S
C296        C297   1.389       .  A
C296        C443   1.520       .  S
C297        H300   1.083       .  S
C301        C302   1.395       .  A
C301        C306   1.396       .  A
C301       C1108   1.483   1_545  S
C302        C303   1.389       .  A
C302        H307   1.083       .  S
C303        C304   1.425       .  A
C303        C333   1.516       .  S
C304        C305   1.434       .  A
C304        H308   1.078       .  S
C305        C306   1.402       .  A
C305        C495   1.496   1_545  S
C306        H873   1.075   1_545  S
H309        C870   1.075       .  S
C310        C311   1.396       .  A
C310        C315   1.395       .  A
C310        C541   1.483       .  S
C311        C312   1.402       .  A
C311        H316   1.075       .  S
C312        C313   1.434       .  A
C312        C438   1.496       .  S
C313        C314   1.425       .  A
C313        H317   1.078       .  S
C314        C315   1.389       .  A
C314        C374   1.516       .  S
C315        H318   1.083       .  S
O319        C329   1.283       .  A
O319       Cu891   2.070   1_556  S
O320        C330   1.283       .  A
O321        C331   1.282   1_554  A
O321       Cu327   2.009       .  S
O322        C332   1.280       .  A
O322       Cu891   2.050       .  S
O323        C332   1.272       .  A
O323       Cu328   1.940       .  S
O324        C331   1.268       .  A
O324       Cu892   1.952   1_546  S
O325        C330   1.279       .  A
O325       Cu610   1.979   1_545  S
O326        C329   1.280       .  A
O326       Cu328   2.002   1_556  S
Cu327       O883   2.070   1_544  S
Cu327       O886   2.050   1_545  S
Cu327      Cu892   2.365   1_545  S
Cu328       O888   1.952   1_554  S
Cu328       O607   1.979       .  S
Cu328      Cu891   2.365       .  S
C329        C493   1.500       .  S
C330        C335   1.500       .  S
C331        C346   1.460       .  S
C333        C334   1.444       .  A
C333        C338   1.411       .  A
C334        C335   1.413       .  A
C334        H339   1.079       .  S
C335        C336   1.386       .  A
C336        C337   1.393       .  A
C336        H340   1.086       .  S
C337        C338   1.400       .  A
C337       C1537   1.479       .  S
C338        H341   1.066       .  S
C342        C343   1.422       .  A
C342        C347   1.406       .  A
C342       C1549   1.506       .  S
C343        C344   1.431       .  A
C343        H348   1.073       .  S
C344        C345   1.391       .  A
C345        C346   1.387       .  A
C345        H349   1.084       .  S
C346        C347   1.401       .  A
C347        H350   1.085       .  S
O351        C361   1.286       .  A
O351      Cu1487   2.085   1_455  S
O352        C362   1.284       .  A
O352       Cu359   2.083       .  S
O353        C363   1.280       .  A
O353       Cu359   2.003       .  S
O354        C364   1.280       .  A
O354      Cu1487   2.045   1_455  S
O355        C364   1.272       .  A
O355       Cu360   1.931       .  S
O356        C363   1.269       .  A
O356      Cu1488   1.943       .  S
O357        C362   1.277       .  A
O357      Cu1488   1.968       .  S
O358        C361   1.277       .  A
O358       Cu360   1.996       .  S
Cu359      O1479   2.085       .  S
Cu359      O1482   2.045       .  S
Cu359     Cu1488   2.367       .  S
Cu360      O1484   1.943   1_455  S
Cu360      O1485   1.968       .  S
Cu360     Cu1487   2.367   1_455  S
C361        C929   1.500       .  S
C362        C488   1.496       .  S
C363        C497   1.454       .  S
C364        C376   1.479       .  S
C365        C366   1.402       .  A
C365       C1498   1.421       .  A
C365        C925   1.500   1_545  S
C366        C367   1.399       .  A
C366        H371   1.085       .  S
C367        C368   1.391       .  A
C367        C423   1.462       .  S
C368        C369   1.396       .  A
C368        H372   1.084       .  S
C369       C1498   1.430       .  A
C369       C1641   1.500   1_455  S
C370       C1493   1.421       .  A
C370       C1497   1.430       .  A
C370        H373   1.072       .  S
C374        C375   1.411       .  A
C374        C379   1.444       .  A
C375        C376   1.400       .  A
C375        H380   1.066       .  S
C376        C377   1.393       .  A
C377        C378   1.386       .  A
C377        H381   1.086       .  S
C378        C379   1.413       .  A
C378        C393   1.500       .  S
C379        H382   1.079       .  S
O383        C393   1.279       .  A
O383       Cu391   1.979       .  S
O384        C394   1.280       .  A
O384       Cu391   2.002       .  S
O385        C395   1.272       .  A
O385       Cu391   1.940       .  S
O386        C396   1.268       .  A
O386       Cu391   1.952       .  S
O387        C396   1.282       .  A
O387       Cu392   2.009       .  S
O388        C395   1.280       .  A
O388       Cu392   2.050       .  S
O389        C394   1.283       .  A
O389       Cu392   2.069       .  S
O390        C393   1.283       .  A
O390       Cu392   2.086       .  S
Cu391      Cu392   2.365       .  S
C395       C1009   1.485       .  S
C396        C479   1.460       .  S
O397        C407   1.277       .  A
O397       Cu969   1.967       .  S
O398        C408   1.277       .  A
O398       Cu405   1.995       .  S
O399        C409   1.272       .  A
O399       Cu969   1.931   1_655  S
O400        C410   1.269       .  A
O400       Cu405   1.943       .  S
O401        C410   1.280       .  A
O401       Cu970   2.003       .  S
O402        C409   1.280   1_455  A
O402       Cu406   2.046       .  S
O403        C408   1.286       .  A
O403       Cu970   2.084       .  S
O404        C407   1.284       .  A
O404       Cu406   2.083       .  S
Cu405       O961   1.967       .  S
Cu405       O963   1.931   1_455  S
Cu405      Cu970   2.367       .  S
Cu406       O965   2.003       .  S
Cu406       O967   2.084   1_545  S
Cu406      Cu969   2.367       .  S
C407        C427   1.496       .  S
C408        C466   1.500       .  S
C409       C1465   1.479       .  S
C410        C436   1.454       .  S
O411        C421   1.288       .  A
O411       Cu419   2.094       .  S
O412        C422   1.287       .  A
O412       Cu419   2.103       .  S
O413        C423   1.280       .  A
O413       Cu419   2.007       .  S
O414        C424   1.279       .  A
O414       Cu419   2.050       .  S
O415        C424   1.273       .  A
O415       Cu420   1.945       .  S
O416        C423   1.271       .  A
O416       Cu420   1.956       .  S
O417        C422   1.276       .  A
O417       Cu420   1.970       .  S
O418        C421   1.277       .  A
O418       Cu420   1.999       .  S
Cu419      Cu420   2.363       .  S
C421       C1470   1.506   1_455  S
C422        C447   1.505       .  S
C425        C426   1.439       .  A
C425        C430   1.413       .  A
C425        C522   1.511       .  S
C426        C427   1.408       .  A
C426        H431   1.081       .  S
C427        C428   1.389       .  A
C428        C429   1.394       .  A
C428        H432   1.085       .  S
C429        C430   1.405       .  A
C430        H433   1.070       .  S
C434        C435   1.402       .  A
C434        C439   1.423       .  A
C435        C436   1.397       .  A
C435        H440   1.085       .  S
C436        C437   1.384       .  A
C437        C438   1.392       .  A
C437        H441   1.084       .  S
C438        C439   1.430       .  A
C439        H442   1.076       .  S
C443        C444   1.413       .  A
C443        C448   1.447       .  A
C444        C445   1.404       .  A
C444        H449   1.070       .  S
C445        C446   1.396       .  A
C445        C959   1.485       .  S
C446        C447   1.390       .  A
C446        H450   1.085       .  S
C447        C448   1.413       .  A
C448        H451   1.080       .  S
O452        C462   1.276   1_556  A
O452      Cu1588   1.970       .  S
O453        C463   1.277       .  A
O453       Cu460   1.999   1_455  S
O454        C464   1.273       .  A
O454      Cu1588   1.945       .  S
O455        C465   1.271       .  A
O456        C465   1.280       .  A
O456      Cu1307   2.007       .  S
O457        C464   1.279       .  A
O457       Cu461   2.050       .  S
O458        C463   1.288       .  A
O458      Cu1589   2.094   1_455  S
O459        C462   1.287       .  A
O459       Cu461   2.103   1_554  S
Cu460      O1580   1.970       .  S
Cu460      O1582   1.945       .  S
Cu460     Cu1589   2.363       .  S
Cu461      O1302   2.007   1_556  S
Cu461      O1586   2.094       .  S
Cu461     Cu1588   2.363       .  S
C463        C475   1.506       .  S
C464        C486   1.486       .  S
C465        C468   1.461       .  S
C466        C467   1.402       .  A
C466        C471   1.421       .  A
C467        C468   1.399   1_455  A
C467        H472   1.085   1_455  S
C468        C469   1.391   1_655  A
C469        C470   1.396       .  A
C469        H473   1.084       .  S
C470        C471   1.430       .  A
C470        C524   1.500       .  S
C471        H474   1.072       .  S
C475        C476   1.422       .  A
C475        C480   1.406       .  A
C476        C477   1.431       .  A
C476        H481   1.073   1_556  S
C477        C478   1.391       .  A
C478        C479   1.387       .  A
C478        H482   1.084       .  S
C479        C480   1.401       .  A
C480        H483   1.085       .  S
C484        C485   1.413       .  A
C484        C489   1.439       .  A
C484        C515   1.511       .  S
C485        C486   1.405       .  A
C485        H490   1.070       .  S
C486        C487   1.395       .  A
C487        C488   1.389       .  A
C487        H491   1.085       .  S
C488        C489   1.409       .  A
C489        H492   1.081       .  S
C493       C1058   1.423       .  A
C493        C498   1.402       .  A
C494       C1057   1.423       .  A
C494        C495   1.430       .  A
C494        H499   1.076   1_565  S
C495       C1060   1.392       .  A
C496       C1059   1.392       .  A
C496        C497   1.384       .  A
C496        H500   1.084       .  S
C497        C498   1.397       .  A
C498        H501   1.085       .  S
C502        C503   1.413       .  A
C502        C507   1.446       .  A
C503        C504   1.403       .  A
C503        H508   1.070       .  S
C504        C505   1.395       .  A
C505        C506   1.390       .  A
C505        H509   1.085       .  S
C506        C507   1.412       .  A
C507        H510   1.080       .  S
C511        C512   1.401       .  A
C511        C516   1.392       .  A
C511       C1657   1.480       .  S
C512        C513   1.403       .  A
C512       H1645   1.079       .  S
C513        C514   1.435       .  A
C513       C1497   1.500       .  S
C514        C515   1.425       .  A
C514        H518   1.077       .  S
C515        C516   1.395       .  A
C516        H519   1.084       .  S
H517       C1640   1.079       .  S
C520        C521   1.392       .  A
C520        C525   1.401       .  A
C520        C532   1.479       .  S
C521        C522   1.395       .  A
C521        H526   1.084       .  S
C522        C523   1.425       .  A
C523        C524   1.435       .  A
C523        H527   1.077       .  S
C524        C525   1.403       .  A
C525        H528   1.079       .  S
C529        C530   1.415       .  A
C529        C534   1.403   1_455  A
C529       C1639   1.480   1_455  S
C530        C531   1.394       .  A
C530        H539   1.080       .  S
C531        C532   1.403       .  A
C531        S535   1.807       .  S
C532        C533   1.415       .  A
C533        C534   1.394   1_455  A
C533        H540   1.080       .  S
C534       S1664   1.807       .  S
S535        H538   1.407       .  S
S536       C1662   1.807       .  S
S536        H537   1.407       .  S
C541        C542   1.399       .  A
C541        C546   1.423       .  A
C542        C543   1.394       .  A
C542        H551   1.083       .  S
C543        C544   1.423       .  A
C543        S547   1.806       .  S
C544        C545   1.399       .  A
C544        C865   1.483       .  S
C545        C546   1.394       .  A
C545       H1116   1.083       .  S
C546        S548   1.806       .  S
S547        H550   1.406       .  S
S548        H549   1.406       .  S
H552       C1109   1.083       .  S
C553        C554   1.397       .  A
C553        C558   1.423       .  A
C554        C555   1.395       .  A
C554        H563   1.084   1_556  S
C555        C556   1.423       .  A
C555        S559   1.803       .  S
C556        C557   1.397       .  A
C557        C558   1.395       .  A
C557        H564   1.084       .  S
C558        S560   1.803       .  S
S559        H562   1.407   1_556  S
S560        H561   1.407       .  S
C565        C566   1.397       .  A
C565        C852   1.392       .  A
C565        C835   1.482       .  S
C566        C567   1.404       .  A
C566        H571   1.077       .  S
C567        C850   1.437       .  A
C567        C759   1.499       .  S
C568        C849   1.438       .  A
C568        C569   1.429       .  A
C568        H572   1.079       .  S
C569        C570   1.389       .  A
C569        C784   1.520       .  S
C570        C847   1.392       .  A
C570        H573   1.083       .  S
C574        C575   1.398       .  A
C574        C579   1.392       .  A
C574        C838   1.482       .  S
C575        C576   1.406       .  A
C575        H580   1.080       .  S
C576        C577   1.438       .  A
C576        C626   1.498       .  S
C577        C578   1.429       .  A
C577        H581   1.079       .  S
C578        C579   1.389       .  A
C578        C725   1.520       .  S
C579        H582   1.083       .  S
C583        C584   1.395       .  A
C583        C588   1.396       .  A
C584        C585   1.389       .  A
C584        H589   1.083       .  S
C585        C586   1.425       .  A
C585        C615   1.516       .  S
C586        C587   1.433       .  A
C586        H590   1.078       .  S
C587        C588   1.402       .  A
C587        C777   1.496       .  S
C592        C593   1.396       .  A
C592        C597   1.395       .  A
C592        C823   1.483       .  S
C593        C594   1.402       .  A
C593        H598   1.075       .  S
C594        C595   1.434       .  A
C594        C720   1.496       .  S
C595        C596   1.425       .  A
C595        H599   1.078       .  S
C596        C597   1.389       .  A
C596        C656   1.516       .  S
C597        H600   1.083       .  S
O601        C611   1.283       .  A
O602        C612   1.283       .  A
O602       Cu891   2.086       .  S
O603        C613   1.282       .  A
O603       Cu609   2.008       .  S
O604        C614   1.280       .  A
O605        C614   1.272       .  A
O605       Cu610   1.940       .  S
O606        C613   1.268       .  A
O607        C612   1.279       .  A
O608        C611   1.280       .  A
O608       Cu610   2.002       .  S
Cu609       O884   2.087       .  S
C611        C775   1.500       .  S
C612        C617   1.500       .  S
C613        C628   1.460       .  S
C614       C1068   1.485       .  S
C615        C616   1.444       .  A
C615        C620   1.411       .  A
C616        C617   1.413       .  A
C616        H621   1.079       .  S
C617        C618   1.386       .  A
C618        C619   1.393       .  A
C618        H622   1.086       .  S
C619        C620   1.400       .  A
C619       C1819   1.479       .  S
C620        H623   1.066       .  S
C624        C625   1.422       .  A
C624        C629   1.406       .  A
C624       C1831   1.505       .  S
C625        C626   1.431       .  A
C625        H630   1.073       .  S
C626        C627   1.391       .  A
C627        C628   1.387       .  A
C627        H631   1.084       .  S
C628        C629   1.400       .  A
C629        H632   1.085       .  S
O633        C643   1.286       .  A
O633      Cu1769   2.085   1_455  S
O634        C644   1.284       .  A
O634       Cu641   2.083       .  S
O635        C645   1.280       .  A
O635       Cu641   2.004       .  S
O636        C646   1.280       .  A
O636      Cu1769   2.046   1_455  S
O637        C646   1.272       .  A
O637       Cu642   1.931       .  S
O638        C645   1.269       .  A
O638      Cu1770   1.943       .  S
O639        C644   1.277       .  A
O639      Cu1770   1.968       .  S
O640        C643   1.277       .  A
O640       Cu642   1.996       .  S
Cu641      O1761   2.085       .  S
Cu641      O1764   2.046       .  S
Cu641     Cu1770   2.366       .  S
Cu642      O1766   1.943   1_455  S
Cu642      O1767   1.968       .  S
Cu642     Cu1769   2.366   1_455  S
C644        C770   1.496       .  S
C645        C779   1.454       .  S
C646        C658   1.479       .  S
C647        C648   1.402       .  A
C647       C1780   1.421       .  A
C648        C649   1.399       .  A
C648        H653   1.085       .  S
C649        C650   1.391       .  A
C649        C705   1.461       .  S
C650        C651   1.396       .  A
C650        H654   1.084       .  S
C651       C1780   1.430       .  A
C651       C1923   1.500   1_455  S
C652       C1775   1.421       .  A
C652       C1779   1.430       .  A
C652        H655   1.072       .  S
C656        C657   1.411       .  A
C656        C661   1.444       .  A
C657        C658   1.400       .  A
C657        H662   1.067       .  S
C658        C659   1.393       .  A
C659        C660   1.386       .  A
C659        H663   1.086       .  S
C660        C661   1.413       .  A
C660        C675   1.500       .  S
C661        H664   1.079       .  S
O665        C675   1.279       .  A
O665       Cu673   1.978       .  S
O666        C676   1.279       .  A
O666       Cu673   2.002       .  S
O667        C677   1.272       .  A
O667       Cu673   1.941   1_545  S
O668        C678   1.269       .  A
O668       Cu673   1.953       .  S
O669        C678   1.282       .  A
O669       Cu674   2.009       .  S
O670        C677   1.280   1_565  A
O670       Cu674   2.050       .  S
O671        C676   1.283       .  A
O671       Cu674   2.070       .  S
O672        C675   1.283       .  A
O672       Cu674   2.087       .  S
Cu673      Cu674   2.365       .  S
C676        C998   1.500       .  S
C678        C761   1.461       .  S
O679        C689   1.277       .  A
O680        C690   1.277       .  A
O680       Cu687   1.996   1_565  S
O681        C691   1.272       .  A
O682        C692   1.269       .  A
O682       Cu687   1.943       .  S
O683        C692   1.280       .  A
O684        C691   1.280   1_455  A
O684       Cu688   2.046       .  S
O685        C690   1.286       .  A
O686        C689   1.284       .  A
O686       Cu688   2.083       .  S
C689        C709   1.496       .  S
C690        C748   1.500       .  S
C691       C1747   1.479       .  S
C692        C718   1.454   1_545  S
O693        C703   1.287       .  A
O693       Cu701   2.093       .  S
O694        C704   1.286       .  A
O694       Cu701   2.103       .  S
O695        C705   1.280       .  A
O695       Cu701   2.007       .  S
O696        C706   1.279       .  A
O696       Cu701   2.049       .  S
O697        C706   1.273       .  A
O697       Cu702   1.945       .  S
O698        C705   1.271       .  A
O698       Cu702   1.955       .  S
O699        C704   1.276       .  A
O699       Cu702   1.970       .  S
O700        C703   1.277       .  A
O700       Cu702   1.999       .  S
Cu701      Cu702   2.363       .  S
C703       C1752   1.505   1_455  S
C704        C729   1.505       .  S
C706        C993   1.486       .  S
C707        C708   1.439       .  A
C707        C712   1.413       .  A
C707        C804   1.511       .  S
C708        C709   1.408       .  A
C708        H713   1.081       .  S
C709        C710   1.389       .  A
C710        C711   1.395       .  A
C710        H714   1.085       .  S
C711        C712   1.405       .  A
C711        C988   1.486   1_554  S
C712        H715   1.070       .  S
C716        C717   1.402       .  A
C716        C721   1.423       .  A
C716        C958   1.500   1_554  S
C717        C718   1.397       .  A
C717        H722   1.085   1_565  S
C718        C719   1.384       .  A
C719        C720   1.392       .  A
C719        H723   1.084       .  S
C720        C721   1.430       .  A
C721        H724   1.076       .  S
C725        C726   1.414       .  A
C725        C730   1.447       .  A
C726        C727   1.404       .  A
C726        H731   1.070       .  S
C727        C728   1.396       .  A
C728        C729   1.390       .  A
C728        H732   1.085       .  S
C729        C730   1.412       .  A
C730        H733   1.080       .  S
O734        C744   1.276       .  A
O734      Cu1870   1.969       .  S
O735        C745   1.277       .  A
O735       Cu742   1.998   1_455  S
O736        C746   1.274       .  A
O736      Cu1870   1.945       .  S
O737        C747   1.271       .  A
O737      Cu1024   1.956   1_554  S
O738        C747   1.280       .  A
O738      Cu2153   2.007   1_554  S
O739        C746   1.279       .  A
O739       Cu743   2.049       .  S
O740        C745   1.288       .  A
O740      Cu1871   2.094   1_455  S
O741        C744   1.286       .  A
O741       Cu743   2.102       .  S
Cu742      O1862   1.969       .  S
Cu742      O1864   1.945       .  S
Cu742      O1019   1.956       .  S
Cu742     Cu1871   2.363       .  S
Cu743      O2148   2.007       .  S
Cu743      O1868   2.094       .  S
Cu743     Cu1870   2.363       .  S
C744       C1070   1.504       .  S
C745        C757   1.506       .  S
C746        C768   1.485       .  S
C747        C750   1.462       .  S
C748        C749   1.402       .  A
C748        C753   1.421       .  A
C749        C750   1.399   1_455  A
C749        H754   1.085   1_455  S
C750        C751   1.391   1_655  A
C751        C752   1.396       .  A
C751        H755   1.084       .  S
C752        C753   1.430       .  A
C752        C806   1.500       .  S
C753        H756   1.072       .  S
C757        C758   1.422       .  A
C757        C762   1.406       .  A
C758        C759   1.431       .  A
C758        H763   1.072       .  S
C759        C760   1.391       .  A
C760        C761   1.387       .  A
C760        H764   1.084       .  S
C761        C762   1.401       .  A
C762        H765   1.085       .  S
C766        C767   1.413       .  A
C766        C771   1.439       .  A
C766        C797   1.511       .  S
C767        C768   1.405       .  A
C767        H772   1.070       .  S
C768        C769   1.395       .  A
C769        C770   1.389       .  A
C769        H773   1.085       .  S
C770        C771   1.409       .  A
C771        H774   1.081       .  S
C775        C780   1.402       .  A
C776        C777   1.430       .  A
C776        H781   1.076       .  S
C778        C779   1.384       .  A
C778        H782   1.084       .  S
C779        C780   1.397       .  A
C780        H783   1.085       .  S
C784        C785   1.413       .  A
C784        C789   1.447       .  A
C785        C786   1.404       .  A
C785        H790   1.070       .  S
C786        C787   1.396       .  A
C786        C896   1.485       .  S
C787        C788   1.390       .  A
C787        H791   1.085       .  S
C788        C789   1.413       .  A
C788       C1026   1.505       .  S
C789        H792   1.080       .  S
C793        C794   1.401       .  A
C793        C798   1.392       .  A
C793       C1939   1.479       .  S
C794        C795   1.403       .  A
C794       H1927   1.079       .  S
C795        C796   1.435       .  A
C795       C1779   1.500       .  S
C796        C797   1.425       .  A
C796        H800   1.077       .  S
C797        C798   1.395       .  A
C798        H801   1.084       .  S
H799       C1922   1.079       .  S
C802        C803   1.392       .  A
C802        C807   1.401       .  A
C802        C814   1.480       .  S
C803        C804   1.395       .  A
C803        H808   1.084       .  S
C804        C805   1.425       .  A
C805        C806   1.435       .  A
C805        H809   1.077       .  S
C806        C807   1.403       .  A
C807        H810   1.079       .  S
C811        C812   1.415       .  A
C811        C816   1.403   1_455  A
C811       C1921   1.479   1_455  S
C812        C813   1.394       .  A
C812        H821   1.080       .  S
C813        C814   1.403       .  A
C813        S817   1.807       .  S
C814        C815   1.415       .  A
C815        C816   1.394   1_455  A
C815        H822   1.080       .  S
C816       S1946   1.807       .  S
S817        H820   1.407       .  S
S818       C1944   1.807       .  S
S818        H819   1.407       .  S
C823        C824   1.399       .  A
C823        C828   1.423       .  A
C824        C825   1.394       .  A
C824        H833   1.083       .  S
C825        C826   1.423       .  A
C825        S829   1.806       .  S
C826        C827   1.398   1_565  A
C827        C828   1.394   1_545  A
C828        S830   1.806   1_565  S
S829        H832   1.406       .  S
S830        H831   1.406       .  S
C835        C836   1.398       .  A
C835        C840   1.422       .  A
C836        C837   1.396       .  A
C836        H845   1.084       .  S
C837        C838   1.424       .  A
C837        S841   1.803       .  S
C838        C839   1.397       .  A
C839        C840   1.391       .  A
C839        H846   1.085       .  S
C840        S842   1.795       .  S
S841        H844   1.407       .  S
S842        H843   1.406       .  S
C847        C848   1.398   1_554  A
C847       C1117   1.481   1_554  S
C848        C849   1.405   1_556  A
C848        H853   1.079       .  S
C849       C1041   1.499   1_554  S
C850        C851   1.429       .  A
C850        H854   1.079       .  S
C851        C852   1.390       .  A
C851       C1066   1.518       .  S
C852        H855   1.083       .  S
C856        C857   1.398       .  A
C856        C861   1.392       .  A
C856       C1120   1.481       .  S
C857        C858   1.405       .  A
C857        H862   1.079       .  S
C858        C859   1.438       .  A
C858        C908   1.499       .  S
C859        C860   1.429       .  A
C859        H863   1.079       .  S
C860        C861   1.389       .  A
C860       C1007   1.520       .  S
C861        H864   1.083       .  S
C865        C866   1.395       .  A
C865        C870   1.396       .  A
C866        C867   1.389       .  A
C866        H871   1.083       .  S
C867        C868   1.425       .  A
C867        C897   1.516       .  S
C868        C869   1.434       .  A
C868        H872   1.078       .  S
C869        C870   1.402       .  A
C869       C1059   1.496       .  S
C874        C875   1.396       .  A
C874        C879   1.395       .  A
C874       C1105   1.483       .  S
C875        C876   1.402       .  A
C875        H880   1.075       .  S
C876        C877   1.434       .  A
C876       C1002   1.496       .  S
C877        C878   1.425       .  A
C877        H881   1.078       .  S
C878        C879   1.389       .  A
C878        C938   1.516       .  S
C879        H882   1.083       .  S
O883        C893   1.283       .  A
O884        C894   1.283       .  A
O885        C895   1.282   1_554  A
O885       Cu891   2.009       .  S
O886        C896   1.280       .  A
O887        C896   1.272       .  A
O887       Cu892   1.940       .  S
O888        C895   1.268       .  A
O889        C894   1.279       .  A
O890        C893   1.280       .  A
O890       Cu892   2.002   1_556  S
C893       C1057   1.500       .  S
C894        C899   1.500       .  S
C895        C910   1.460       .  S
C897        C898   1.444       .  A
C897        C902   1.411       .  A
C898        C899   1.413       .  A
C898        H903   1.079       .  S
C899        C900   1.386       .  A
C900        C901   1.393       .  A
C900        H904   1.086       .  S
C901        C902   1.400       .  A
C901       C2101   1.479       .  S
C902        H905   1.066       .  S
C906        C907   1.422       .  A
C906        C911   1.406       .  A
C906       C2113   1.506       .  S
C907        C908   1.431       .  A
C907        H912   1.073       .  S
C908        C909   1.391       .  A
C909        C910   1.387       .  A
C909        H913   1.084       .  S
C910        C911   1.401       .  A
C911        H914   1.085       .  S
O915        C925   1.286       .  A
O915      Cu2051   2.085   1_455  S
O916        C926   1.284       .  A
O916       Cu923   2.083       .  S
O917        C927   1.280       .  A
O917       Cu923   2.003       .  S
O918        C928   1.280       .  A
O918      Cu2051   2.045   1_455  S
O919        C928   1.272       .  A
O919       Cu924   1.931       .  S
O920        C927   1.269       .  A
O920      Cu2052   1.943       .  S
O921        C926   1.277       .  A
O921      Cu2052   1.968       .  S
O922        C925   1.277       .  A
O922       Cu924   1.996       .  S
Cu923      O2043   2.085       .  S
Cu923      O2046   2.045       .  S
Cu923     Cu2052   2.367       .  S
Cu924      O2048   1.943   1_455  S
Cu924      O2049   1.968       .  S
Cu924     Cu2051   2.367   1_455  S
C926       C1052   1.496       .  S
C927       C1061   1.454       .  S
C928        C940   1.479       .  S
C929        C930   1.402       .  A
C929       C2062   1.421       .  A
C930        C931   1.399       .  A
C930        H935   1.085       .  S
C931        C932   1.391       .  A
C931        C987   1.462       .  S
C932        C933   1.396       .  A
C932        H936   1.084       .  S
C933       C2062   1.430       .  A
C933       C2205   1.500   1_455  S
C934       C2057   1.421       .  A
C934       C2061   1.430       .  A
C934        H937   1.072       .  S
C938        C939   1.411       .  A
C938        C943   1.444       .  A
C939        C940   1.400       .  A
C939        H944   1.067       .  S
C940        C941   1.393       .  A
C941        C942   1.386       .  A
C941        H945   1.086       .  S
C942        C943   1.413       .  A
C942        C957   1.500       .  S
C943        H946   1.079       .  S
O947        C957   1.279       .  A
O947       Cu955   1.979       .  S
O948        C958   1.280       .  A
O948       Cu955   2.002       .  S
O949        C959   1.272       .  A
O949       Cu955   1.940   1_545  S
O950        C960   1.268       .  A
O950       Cu955   1.952       .  S
O951        C960   1.282       .  A
O951       Cu956   2.009       .  S
O952        C959   1.280   1_565  A
O952       Cu956   2.050       .  S
O953        C958   1.283       .  A
O953       Cu956   2.069       .  S
O954        C957   1.283       .  A
O954       Cu956   2.086       .  S
Cu955      Cu956   2.365       .  S
C960       C1043   1.460       .  S
O961        C971   1.277       .  A
O962        C972   1.277       .  A
O962       Cu969   1.995   1_565  S
O963        C973   1.272       .  A
O964        C974   1.269       .  A
O964       Cu969   1.943       .  S
O965        C974   1.280       .  A
O966        C973   1.280   1_455  A
O966       Cu970   2.046       .  S
O967        C972   1.286       .  A
O968        C971   1.284       .  A
O968       Cu970   2.083       .  S
C971        C991   1.496       .  S
C972       C1030   1.500       .  S
C973       C2029   1.479       .  S
C974       C1000   1.454   1_545  S
O975        C985   1.288       .  A
O975       Cu983   2.094       .  S
O976        C986   1.287       .  A
O976       Cu983   2.103       .  S
O977        C987   1.280       .  A
O977       Cu983   2.007       .  S
O978        C988   1.279       .  A
O978       Cu983   2.050       .  S
O979        C988   1.273       .  A
O979       Cu984   1.945       .  S
O980        C987   1.271       .  A
O980       Cu984   1.956       .  S
O981        C986   1.276       .  A
O981       Cu984   1.970       .  S
O982        C985   1.277       .  A
O982       Cu984   1.999       .  S
Cu983      Cu984   2.363       .  S
C985       C2034   1.506   1_455  S
C986       C1011   1.505       .  S
C989        C990   1.439       .  A
C989        C994   1.413       .  A
C989       C1086   1.511       .  S
C990        C991   1.408       .  A
C990        H995   1.081       .  S
C991        C992   1.389       .  A
C992        C993   1.394       .  A
C992        H996   1.085       .  S
C993        C994   1.405       .  A
C994        H997   1.070       .  S
C998        C999   1.402       .  A
C998       C1003   1.423       .  A
C999       C1000   1.397       .  A
C999       H1004   1.085   1_565  S
C1000      C1001   1.384       .  A
C1001      C1002   1.392       .  A
C1001      H1005   1.084       .  S
C1002      C1003   1.430       .  A
C1003      H1006   1.076       .  S
C1007      C1008   1.413       .  A
C1007      C1012   1.447       .  A
C1008      C1009   1.404       .  A
C1008      H1013   1.070       .  S
C1009      C1010   1.396       .  A
C1010      C1011   1.390       .  A
C1010      H1014   1.085       .  S
C1011      C1012   1.413       .  A
C1012      H1015   1.080       .  S
O1016      C1026   1.276   1_556  A
O1016     Cu2152   1.970       .  S
O1017      C1027   1.277       .  A
O1017     Cu1024   1.999   1_455  S
O1018      C1028   1.273       .  A
O1018     Cu2152   1.945       .  S
O1019      C1029   1.271       .  A
O1020      C1029   1.280       .  A
O1020     Cu1871   2.007       .  S
O1021      C1028   1.279       .  A
O1021     Cu1025   2.050       .  S
O1022      C1027   1.288       .  A
O1022     Cu2153   2.094   1_455  S
O1023      C1026   1.287       .  A
O1023     Cu1025   2.103   1_554  S
Cu1024     O2144   1.970       .  S
Cu1024     O2146   1.945       .  S
Cu1024    Cu2153   2.363       .  S
Cu1025     O1866   2.007   1_556  S
Cu1025     O2150   2.094       .  S
Cu1025    Cu2152   2.363       .  S
C1027      C1039   1.506       .  S
C1028      C1050   1.486       .  S
C1029      C1032   1.461       .  S
C1030      C1031   1.402       .  A
C1030      C1035   1.421       .  A
C1031      C1032   1.399   1_455  A
C1031      H1036   1.085   1_455  S
C1032      C1033   1.391   1_655  A
C1033      C1034   1.396       .  A
C1033      H1037   1.084       .  S
C1034      C1035   1.430       .  A
C1034      C1088   1.500       .  S
C1035      H1038   1.072       .  S
C1039      C1040   1.422       .  A
C1039      C1044   1.406       .  A
C1040      C1041   1.431       .  A
C1040      H1045   1.073   1_556  S
C1041      C1042   1.391       .  A
C1042      C1043   1.387       .  A
C1042      H1046   1.084       .  S
C1043      C1044   1.401       .  A
C1044      H1047   1.085       .  S
C1048      C1049   1.413       .  A
C1048      C1053   1.439       .  A
C1048      C1079   1.511       .  S
C1049      C1050   1.405       .  A
C1049      H1054   1.070       .  S
C1050      C1051   1.395       .  A
C1051      C1052   1.389       .  A
C1051      H1055   1.085       .  S
C1052      C1053   1.409       .  A
C1053      H1056   1.081       .  S
C1057      C1062   1.402       .  A
C1058      C1059   1.430       .  A
C1058      H1063   1.076       .  S
C1060      C1061   1.384       .  A
C1060      H1064   1.084       .  S
C1061      C1062   1.397       .  A
C1062      H1065   1.085       .  S
C1066      C1067   1.413       .  A
C1066      C1071   1.446       .  A
C1067      C1068   1.403       .  A
C1067      H1072   1.070       .  S
C1068      C1069   1.395       .  A
C1069      C1070   1.390       .  A
C1069      H1073   1.085       .  S
C1070      C1071   1.412       .  A
C1071      H1074   1.080       .  S
C1075      C1076   1.401       .  A
C1075      C1080   1.392       .  A
C1075      C2221   1.480       .  S
C1076      C1077   1.403       .  A
C1076      H2209   1.079       .  S
C1077      C1078   1.435       .  A
C1077      C2061   1.500       .  S
C1078      C1079   1.425       .  A
C1078      H1082   1.077       .  S
C1079      C1080   1.395       .  A
C1080      H1083   1.084       .  S
H1081      C2204   1.079       .  S
C1084      C1085   1.392       .  A
C1084      C1089   1.401       .  A
C1084      C1096   1.479       .  S
C1085      C1086   1.395       .  A
C1085      H1090   1.084       .  S
C1086      C1087   1.425       .  A
C1087      C1088   1.435       .  A
C1087      H1091   1.077       .  S
C1088      C1089   1.403       .  A
C1089      H1092   1.079       .  S
C1093      C1094   1.415       .  A
C1093      C1098   1.403   1_455  A
C1093      C2203   1.480   1_455  S
C1094      C1095   1.394       .  A
C1094      H1103   1.080       .  S
C1095      C1096   1.403       .  A
C1095      S1099   1.807       .  S
C1096      C1097   1.415       .  A
C1097      C1098   1.394   1_455  A
C1097      H1104   1.080       .  S
C1098      S2228   1.807       .  S
S1099      H1102   1.407       .  S
S1100      C2226   1.807       .  S
S1100      H1101   1.407       .  S
C1105      C1106   1.398       .  A
C1105      C1110   1.423       .  A
C1106      C1107   1.394       .  A
C1106      H1115   1.083       .  S
C1107      C1108   1.423       .  A
C1107      S1111   1.806       .  S
C1108      C1109   1.399   1_565  A
C1109      C1110   1.394   1_545  A
C1110      S1112   1.806   1_565  S
S1111      H1114   1.406       .  S
S1112      H1113   1.406       .  S
C1117      C1118   1.397       .  A
C1117      C1122   1.423       .  A
C1118      C1119   1.395       .  A
C1118      H1127   1.084   1_556  S
C1119      C1120   1.423       .  A
C1119      S1123   1.803       .  S
C1120      C1121   1.397       .  A
C1121      C1122   1.395       .  A
C1121      H1128   1.084       .  S
C1122      S1124   1.803       .  S
S1123      H1126   1.407   1_556  S
S1124      H1125   1.407       .  S
C1129      C1130   1.397       .  A
C1129      C1416   1.392       .  A
C1129      C1399   1.482       .  S
C1130      C1131   1.404       .  A
C1130      H1135   1.077       .  S
C1131      C1414   1.437       .  A
C1131      C1323   1.499       .  S
C1132      C1413   1.438       .  A
C1132      C1133   1.429       .  A
C1132      H1136   1.079       .  S
C1133      C1134   1.389       .  A
C1133      C1348   1.520       .  S
C1134      C1411   1.392       .  A
C1134      H1137   1.083       .  S
C1138      C1139   1.398       .  A
C1138      C1143   1.392       .  A
C1138      C1402   1.482       .  S
C1139      C1140   1.406       .  A
C1139      H1144   1.080       .  S
C1140      C1141   1.438       .  A
C1140      C1190   1.498       .  S
C1141      C1142   1.429       .  A
C1141      H1145   1.079       .  S
C1142      C1143   1.389       .  A
C1142      C1289   1.520       .  S
C1143      H1146   1.083       .  S
C1147      C1148   1.395       .  A
C1147      C1152   1.396       .  A
C1147      C1954   1.483   1_545  S
C1148      C1149   1.389       .  A
C1148      H1153   1.083       .  S
C1149      C1150   1.425       .  A
C1149      C1179   1.516       .  S
C1150      C1151   1.433       .  A
C1150      H1154   1.078       .  S
C1151      C1152   1.402       .  A
C1151      C1341   1.496   1_545  S
C1152      H1719   1.075   1_545  S
H1155      C1716   1.075       .  S
C1156      C1157   1.396       .  A
C1156      C1161   1.395       .  A
C1156      C1387   1.483       .  S
C1157      C1158   1.402       .  A
C1157      H1162   1.075       .  S
C1158      C1159   1.434       .  A
C1158      C1284   1.496       .  S
C1159      C1160   1.425       .  A
C1159      H1163   1.078       .  S
C1160      C1161   1.389       .  A
C1160      C1220   1.516       .  S
C1161      H1164   1.083       .  S
O1165      C1175   1.283       .  A
O1165     Cu1737   2.070       .  S
O1166      C1176   1.283       .  A
O1166     Cu1455   2.086       .  S
O1167      C1177   1.282       .  A
O1167     Cu1173   2.008       .  S
O1168      C1178   1.280       .  A
O1168     Cu1737   2.049       .  S
O1169      C1178   1.272       .  A
O1169     Cu1174   1.940       .  S
O1170      C1177   1.268       .  A
O1170     Cu1738   1.952   1_545  S
O1171      C1176   1.279       .  A
O1171     Cu2020   1.979   1_545  S
O1172      C1175   1.280       .  A
O1172     Cu1174   2.002       .  S
Cu1173     O1729   2.070   1_545  S
Cu1173     O1448   2.087       .  S
Cu1173     O1732   2.049   1_545  S
Cu1173    Cu1738   2.365   1_545  S
Cu1174     O1734   1.952       .  S
Cu1174     O2017   1.979       .  S
Cu1174    Cu1737   2.365       .  S
C1175      C1339   1.500       .  S
C1176      C1181   1.500       .  S
C1177      C1192   1.460       .  S
C1178      C1632   1.485       .  S
C1179      C1180   1.444       .  A
C1179      C1184   1.411       .  A
C1180      C1181   1.413       .  A
C1180      H1185   1.079       .  S
C1181      C1182   1.386       .  A
C1182      C1183   1.393       .  A
C1182      H1186   1.086       .  S
C1183      C1184   1.400       .  A
C1184      H1187   1.066       .  S
C1188      C1189   1.422       .  A
C1188      C1193   1.406       .  A
C1189      C1190   1.431       .  A
C1189      H1194   1.073       .  S
C1190      C1191   1.391       .  A
C1191      C1192   1.387       .  A
C1191      H1195   1.084       .  S
C1192      C1193   1.400       .  A
C1193      H1196   1.085       .  S
O1197      C1207   1.286       .  A
O1198      C1208   1.284       .  A
O1198     Cu1205   2.083       .  S
O1199      C1209   1.280       .  A
O1199     Cu1205   2.004       .  S
O1200      C1210   1.280       .  A
O1201      C1210   1.272       .  A
O1201     Cu1206   1.931       .  S
O1202      C1209   1.269       .  A
O1203      C1208   1.277   1_455  A
O1204      C1207   1.277       .  A
O1204     Cu1206   1.996       .  S
C1207      C1775   1.500       .  S
C1208      C1334   1.496       .  S
C1209      C1343   1.454       .  S
C1210      C1222   1.479       .  S
C1211      C1212   1.402       .  A
C1211      C1771   1.500   1_545  S
C1212      C1213   1.399       .  A
C1212      H1217   1.085       .  S
C1213      C1214   1.391       .  A
C1213      C1269   1.461       .  S
C1214      C1215   1.396       .  A
C1214      H1218   1.084       .  S
C1216      H1219   1.072   1_455  S
C1220      C1221   1.411       .  A
C1220      C1225   1.444       .  A
C1221      C1222   1.400       .  A
C1221      H1226   1.067       .  S
C1222      C1223   1.393       .  A
C1223      C1224   1.386       .  A
C1223      H1227   1.086       .  S
C1224      C1225   1.413       .  A
C1224      C1239   1.500       .  S
C1225      H1228   1.079       .  S
O1229      C1239   1.279       .  A
O1229     Cu1237   1.978       .  S
O1230      C1240   1.279       .  A
O1230     Cu1237   2.002       .  S
O1231      C1241   1.272       .  A
O1231     Cu1237   1.941       .  S
O1232      C1242   1.269       .  A
O1232     Cu1237   1.953       .  S
O1233      C1242   1.282       .  A
O1233     Cu1238   2.009       .  S
O1234      C1241   1.280       .  A
O1234     Cu1238   2.050       .  S
O1235      C1240   1.283       .  A
O1235     Cu1238   2.070       .  S
O1236      C1239   1.283       .  A
O1236     Cu1238   2.087       .  S
Cu1237    Cu1238   2.365       .  S
C1240      C1562   1.500       .  S
C1241      C1855   1.486       .  S
C1242      C1325   1.461       .  S
O1243      C1253   1.277       .  A
O1243     Cu1815   1.968       .  S
O1244      C1254   1.277       .  A
O1244     Cu1251   1.996       .  S
O1245      C1255   1.272       .  A
O1245     Cu1815   1.931       .  S
O1246      C1256   1.269       .  A
O1246     Cu1251   1.943       .  S
O1247      C1256   1.280       .  A
O1247     Cu1816   2.003       .  S
O1248      C1255   1.280       .  A
O1248     Cu1252   2.046       .  S
O1249      C1254   1.286       .  A
O1249     Cu1816   2.085       .  S
O1250      C1253   1.284       .  A
O1250     Cu1252   2.083       .  S
Cu1251     O1807   1.968       .  S
Cu1251     O1809   1.931       .  S
Cu1251    Cu1816   2.367       .  S
Cu1252     O1811   2.003       .  S
Cu1252     O1813   2.085   1_545  S
Cu1252    Cu1815   2.367       .  S
C1253      C1273   1.496       .  S
C1254      C1312   1.500       .  S
C1256      C1282   1.454       .  S
O1257      C1267   1.287       .  A
O1257     Cu1265   2.093       .  S
O1258      C1268   1.286       .  A
O1258     Cu1265   2.103       .  S
O1259      C1269   1.280       .  A
O1259     Cu1265   2.007       .  S
O1260      C1270   1.279       .  A
O1260     Cu1265   2.049       .  S
O1261      C1270   1.273       .  A
O1261     Cu1266   1.945       .  S
O1262      C1269   1.271       .  A
O1262     Cu1266   1.955       .  S
O1263      C1268   1.276       .  A
O1263     Cu1266   1.970       .  S
O1264      C1267   1.277       .  A
O1264     Cu1266   1.999       .  S
Cu1265    Cu1266   2.363       .  S
C1268      C1293   1.505       .  S
C1270      C1557   1.486       .  S
C1271      C1272   1.439       .  A
C1271      C1276   1.413       .  A
C1271      C1368   1.511       .  S
C1272      C1273   1.408       .  A
C1272      H1277   1.081       .  S
C1273      C1274   1.389       .  A
C1274      C1275   1.395       .  A
C1274      H1278   1.085       .  S
C1275      C1276   1.405       .  A
C1275      C1552   1.486   1_554  S
C1276      H1279   1.070       .  S
C1280      C1281   1.402       .  A
C1280      C1285   1.423       .  A
C1280      C1522   1.500   1_554  S
C1281      C1282   1.397       .  A
C1281      H1286   1.085       .  S
C1282      C1283   1.384       .  A
C1283      C1284   1.392       .  A
C1283      H1287   1.084       .  S
C1284      C1285   1.430       .  A
C1285      H1288   1.076       .  S
C1289      C1290   1.414       .  A
C1289      C1294   1.447       .  A
C1290      C1291   1.404       .  A
C1290      H1295   1.070       .  S
C1291      C1292   1.396       .  A
C1291      C1805   1.486       .  S
C1292      C1293   1.390       .  A
C1292      H1296   1.085       .  S
C1293      C1294   1.412       .  A
C1294      H1297   1.080       .  S
O1298      C1308   1.276       .  A
O1299      C1309   1.277       .  A
O1299     Cu1306   1.998       .  S
O1300      C1310   1.274       .  A
O1301      C1311   1.271       .  A
O1301     Cu1588   1.956   1_554  S
O1302      C1311   1.280       .  A
O1303      C1310   1.279       .  A
O1303     Cu1307   2.049       .  S
O1304      C1309   1.288       .  A
O1305      C1308   1.286       .  A
O1305     Cu1307   2.102       .  S
Cu1306     O1583   1.956       .  S
C1308      C1634   1.504       .  S
C1309      C1321   1.506       .  S
C1310      C1332   1.485       .  S
C1311      C1314   1.462       .  S
C1312      C1313   1.402       .  A
C1312      C1317   1.421       .  A
C1313      C1314   1.399       .  A
C1313      H1318   1.085       .  S
C1314      C1315   1.391       .  A
C1315      C1316   1.396       .  A
C1315      H1319   1.084       .  S
C1316      C1317   1.430       .  A
C1316      C1370   1.500       .  S
C1317      H1320   1.072       .  S
C1321      C1322   1.422       .  A
C1321      C1326   1.406       .  A
C1322      C1323   1.431       .  A
C1322      H1327   1.072       .  S
C1323      C1324   1.391       .  A
C1324      C1325   1.387       .  A
C1324      H1328   1.084       .  S
C1325      C1326   1.401       .  A
C1326      H1329   1.085       .  S
C1330      C1331   1.413       .  A
C1330      C1335   1.439       .  A
C1330      C1361   1.511       .  S
C1331      C1332   1.405       .  A
C1331      H1336   1.070       .  S
C1332      C1333   1.395       .  A
C1333      C1334   1.389       .  A
C1333      H1337   1.085       .  S
C1334      C1335   1.409       .  A
C1335      H1338   1.081       .  S
C1339      C1904   1.423       .  A
C1339      C1344   1.402       .  A
C1340      C1903   1.423       .  A
C1340      C1341   1.430       .  A
C1340      H1345   1.076   1_565  S
C1341      C1906   1.392       .  A
C1342      C1905   1.392       .  A
C1342      C1343   1.384       .  A
C1342      H1346   1.084       .  S
C1343      C1344   1.397       .  A
C1344      H1347   1.085       .  S
C1348      C1349   1.413       .  A
C1348      C1353   1.447       .  A
C1349      C1350   1.404       .  A
C1349      H1354   1.070       .  S
C1350      C1351   1.396       .  A
C1350      C1460   1.485       .  S
C1351      C1352   1.390       .  A
C1351      H1355   1.085       .  S
C1352      C1353   1.413       .  A
C1352      C1590   1.505       .  S
C1353      H1356   1.080       .  S
C1357      C1358   1.401       .  A
C1357      C1362   1.392       .  A
C1358      C1359   1.403       .  A
C1359      C1360   1.435       .  A
C1360      C1361   1.425       .  A
C1360      H1364   1.077       .  S
C1361      C1362   1.395       .  A
C1362      H1365   1.084       .  S
C1366      C1367   1.392       .  A
C1366      C1371   1.401       .  A
C1366      C1378   1.480       .  S
C1367      C1368   1.395       .  A
C1367      H1372   1.084       .  S
C1368      C1369   1.425       .  A
C1369      C1370   1.435       .  A
C1369      H1373   1.077       .  S
C1370      C1371   1.403       .  A
C1371      H1374   1.079       .  S
C1375      C1376   1.415       .  A
C1375      C1380   1.403       .  A
C1376      C1377   1.394       .  A
C1376      H1385   1.080       .  S
C1377      C1378   1.403       .  A
C1377      S1381   1.807       .  S
C1378      C1379   1.415       .  A
C1379      C1380   1.394       .  A
C1379      H1386   1.080       .  S
S1381      H1384   1.407       .  S
S1382      H1383   1.407       .  S
C1387      C1388   1.399       .  A
C1387      C1392   1.423       .  A
C1388      C1389   1.394       .  A
C1388      H1397   1.083       .  S
C1389      C1390   1.423       .  A
C1389      S1393   1.806       .  S
C1390      C1391   1.398       .  A
C1390      C1711   1.483       .  S
C1391      C1392   1.394       .  A
C1391      H1962   1.083       .  S
C1392      S1394   1.806       .  S
S1393      H1396   1.406       .  S
S1394      H1395   1.406       .  S
H1398      C1955   1.083       .  S
C1399      C1400   1.398       .  A
C1399      C1404   1.422       .  A
C1400      C1401   1.396       .  A
C1400      H1409   1.084       .  S
C1401      C1402   1.424       .  A
C1401      S1405   1.803       .  S
C1402      C1403   1.397       .  A
C1403      C1404   1.391       .  A
C1403      H1410   1.085       .  S
C1404      S1406   1.795       .  S
S1405      H1408   1.407       .  S
S1406      H1407   1.406       .  S
C1411      C1412   1.398   1_554  A
C1411      C1681   1.481   1_554  S
C1412      C1413   1.405   1_556  A
C1412      H1417   1.079       .  S
C1413      C1605   1.499   1_554  S
C1414      C1415   1.429       .  A
C1414      H1418   1.079       .  S
C1415      C1416   1.390       .  A
C1415      C1630   1.518       .  S
C1416      H1419   1.083       .  S
C1420      C1421   1.398       .  A
C1420      C1425   1.392       .  A
C1420      C1684   1.481       .  S
C1421      C1422   1.405       .  A
C1421      H1426   1.079       .  S
C1422      C1423   1.438       .  A
C1422      C1472   1.499       .  S
C1423      C1424   1.429       .  A
C1423      H1427   1.079       .  S
C1424      C1425   1.389       .  A
C1424      C1571   1.520       .  S
C1425      H1428   1.083       .  S
C1429      C1430   1.395       .  A
C1429      C1434   1.396       .  A
C1429      C2236   1.483   1_545  S
C1430      C1431   1.389       .  A
C1430      H1435   1.083       .  S
C1431      C1432   1.425       .  A
C1431      C1461   1.516       .  S
C1432      C1433   1.434       .  A
C1432      H1436   1.078       .  S
C1433      C1434   1.402       .  A
C1433      C1623   1.496   1_545  S
C1434      H2001   1.075   1_545  S
H1437      C1998   1.075       .  S
C1438      C1439   1.396       .  A
C1438      C1443   1.395       .  A
C1438      C1669   1.483       .  S
C1439      C1440   1.402       .  A
C1439      H1444   1.075       .  S
C1440      C1441   1.434       .  A
C1440      C1566   1.496       .  S
C1441      C1442   1.425       .  A
C1441      H1445   1.078       .  S
C1442      C1443   1.389       .  A
C1442      C1502   1.516       .  S
C1443      H1446   1.083       .  S
O1447      C1457   1.283       .  A
O1447     Cu2019   2.070   1_556  S
O1448      C1458   1.283       .  A
O1449      C1459   1.282   1_554  A
O1449     Cu1455   2.009       .  S
O1450      C1460   1.280       .  A
O1450     Cu2019   2.050       .  S
O1451      C1460   1.272       .  A
O1451     Cu1456   1.940       .  S
O1452      C1459   1.268       .  A
O1452     Cu2020   1.952   1_546  S
O1453      C1458   1.279       .  A
O1453     Cu1738   1.979   1_545  S
O1454      C1457   1.280       .  A
O1454     Cu1456   2.002   1_556  S
Cu1455     O2011   2.070   1_544  S
Cu1455     O2014   2.050   1_545  S
Cu1455    Cu2020   2.365   1_545  S
Cu1456     O2016   1.952   1_554  S
Cu1456     O1735   1.979       .  S
Cu1456    Cu2019   2.365       .  S
C1457      C1621   1.500       .  S
C1458      C1463   1.500       .  S
C1459      C1474   1.460       .  S
C1461      C1462   1.444       .  A
C1461      C1466   1.411       .  A
C1462      C1463   1.413       .  A
C1462      H1467   1.079       .  S
C1463      C1464   1.386       .  A
C1464      C1465   1.393       .  A
C1464      H1468   1.086       .  S
C1465      C1466   1.400       .  A
C1466      H1469   1.066       .  S
C1470      C1471   1.422       .  A
C1470      C1475   1.406       .  A
C1471      C1472   1.431       .  A
C1471      H1476   1.073       .  S
C1472      C1473   1.391       .  A
C1473      C1474   1.387       .  A
C1473      H1477   1.084       .  S
C1474      C1475   1.401       .  A
C1475      H1478   1.085       .  S
O1479      C1489   1.286       .  A
O1480      C1490   1.284       .  A
O1480     Cu1487   2.083       .  S
O1481      C1491   1.280       .  A
O1481     Cu1487   2.003       .  S
O1482      C1492   1.280       .  A
O1483      C1492   1.272       .  A
O1483     Cu1488   1.931       .  S
O1484      C1491   1.269       .  A
O1485      C1490   1.277   1_455  A
O1486      C1489   1.277       .  A
O1486     Cu1488   1.996       .  S
C1489      C2057   1.500       .  S
C1490      C1616   1.496       .  S
C1491      C1625   1.454       .  S
C1492      C1504   1.479       .  S
C1493      C1494   1.402       .  A
C1493      C2053   1.500   1_545  S
C1494      C1495   1.399       .  A
C1494      H1499   1.085       .  S
C1495      C1496   1.391       .  A
C1495      C1551   1.462       .  S
C1496      C1497   1.396       .  A
C1496      H1500   1.084       .  S
C1498      H1501   1.072   1_455  S
C1502      C1503   1.411       .  A
C1502      C1507   1.444       .  A
C1503      C1504   1.400       .  A
C1503      H1508   1.066       .  S
C1504      C1505   1.393       .  A
C1505      C1506   1.386       .  A
C1505      H1509   1.086       .  S
C1506      C1507   1.413       .  A
C1506      C1521   1.500       .  S
C1507      H1510   1.079       .  S
O1511      C1521   1.279       .  A
O1511     Cu1519   1.979       .  S
O1512      C1522   1.280       .  A
O1512     Cu1519   2.002       .  S
O1513      C1523   1.272       .  A
O1513     Cu1519   1.940       .  S
O1514      C1524   1.268       .  A
O1514     Cu1519   1.952       .  S
O1515      C1524   1.282       .  A
O1515     Cu1520   2.009       .  S
O1516      C1523   1.280       .  A
O1516     Cu1520   2.050       .  S
O1517      C1522   1.283       .  A
O1517     Cu1520   2.069       .  S
O1518      C1521   1.283       .  A
O1518     Cu1520   2.086       .  S
Cu1519    Cu1520   2.365       .  S
C1523      C2137   1.485       .  S
C1524      C1607   1.460       .  S
O1525      C1535   1.277       .  A
O1525     Cu2097   1.967       .  S
O1526      C1536   1.277       .  A
O1526     Cu1533   1.995       .  S
O1527      C1537   1.272       .  A
O1527     Cu2097   1.931       .  S
O1528      C1538   1.269       .  A
O1528     Cu1533   1.943       .  S
O1529      C1538   1.280       .  A
O1529     Cu2098   2.003       .  S
O1530      C1537   1.280       .  A
O1530     Cu1534   2.046       .  S
O1531      C1536   1.286       .  A
O1531     Cu2098   2.084       .  S
O1532      C1535   1.284       .  A
O1532     Cu1534   2.083       .  S
Cu1533     O2089   1.967       .  S
Cu1533     O2091   1.931       .  S
Cu1533    Cu2098   2.367       .  S
Cu1534     O2093   2.003       .  S
Cu1534     O2095   2.084   1_545  S
Cu1534    Cu2097   2.367       .  S
C1535      C1555   1.496       .  S
C1536      C1594   1.500       .  S
C1538      C1564   1.454       .  S
O1539      C1549   1.288       .  A
O1539     Cu1547   2.094       .  S
O1540      C1550   1.287       .  A
O1540     Cu1547   2.103       .  S
O1541      C1551   1.280       .  A
O1541     Cu1547   2.007       .  S
O1542      C1552   1.279       .  A
O1542     Cu1547   2.050       .  S
O1543      C1552   1.273       .  A
O1543     Cu1548   1.945       .  S
O1544      C1551   1.271       .  A
O1544     Cu1548   1.956       .  S
O1545      C1550   1.276       .  A
O1545     Cu1548   1.970       .  S
O1546      C1549   1.277       .  A
O1546     Cu1548   1.999       .  S
Cu1547    Cu1548   2.363       .  S
C1550      C1575   1.505       .  S
C1553      C1554   1.439       .  A
C1553      C1558   1.413       .  A
C1553      C1650   1.511       .  S
C1554      C1555   1.408       .  A
C1554      H1559   1.081       .  S
C1555      C1556   1.389       .  A
C1556      C1557   1.394       .  A
C1556      H1560   1.085       .  S
C1557      C1558   1.405       .  A
C1558      H1561   1.070       .  S
C1562      C1563   1.402       .  A
C1562      C1567   1.423       .  A
C1563      C1564   1.397       .  A
C1563      H1568   1.085       .  S
C1564      C1565   1.384       .  A
C1565      C1566   1.392       .  A
C1565      H1569   1.084       .  S
C1566      C1567   1.430       .  A
C1567      H1570   1.076       .  S
C1571      C1572   1.413       .  A
C1571      C1576   1.447       .  A
C1572      C1573   1.404       .  A
C1572      H1577   1.070       .  S
C1573      C1574   1.396       .  A
C1573      C2087   1.485       .  S
C1574      C1575   1.390       .  A
C1574      H1578   1.085       .  S
C1575      C1576   1.413       .  A
C1576      H1579   1.080       .  S
O1580      C1590   1.276   1_556  A
O1581      C1591   1.277       .  A
O1581     Cu1588   1.999       .  S
O1582      C1592   1.273       .  A
O1583      C1593   1.271       .  A
O1584      C1593   1.280       .  A
O1585      C1592   1.279       .  A
O1585     Cu1589   2.050       .  S
O1586      C1591   1.288       .  A
O1587      C1590   1.287       .  A
O1587     Cu1589   2.103   1_554  S
C1591      C1603   1.506       .  S
C1592      C1614   1.486       .  S
C1593      C1596   1.461       .  S
C1594      C1595   1.402       .  A
C1594      C1599   1.421       .  A
C1595      C1596   1.399       .  A
C1595      H1600   1.085       .  S
C1596      C1597   1.391       .  A
C1597      C1598   1.396       .  A
C1597      H1601   1.084       .  S
C1598      C1599   1.430       .  A
C1598      C1652   1.500       .  S
C1599      H1602   1.072       .  S
C1603      C1604   1.422       .  A
C1603      C1608   1.406       .  A
C1604      C1605   1.431       .  A
C1604      H1609   1.073   1_556  S
C1605      C1606   1.391       .  A
C1606      C1607   1.387       .  A
C1606      H1610   1.084       .  S
C1607      C1608   1.401       .  A
C1608      H1611   1.085       .  S
C1612      C1613   1.413       .  A
C1612      C1617   1.439       .  A
C1612      C1643   1.511       .  S
C1613      C1614   1.405       .  A
C1613      H1618   1.070       .  S
C1614      C1615   1.395       .  A
C1615      C1616   1.389       .  A
C1615      H1619   1.085       .  S
C1616      C1617   1.409       .  A
C1617      H1620   1.081       .  S
C1621      C2186   1.423       .  A
C1621      C1626   1.402       .  A
C1622      C2185   1.423       .  A
C1622      C1623   1.430       .  A
C1622      H1627   1.076   1_565  S
C1623      C2188   1.392       .  A
C1624      C2187   1.392       .  A
C1624      C1625   1.384       .  A
C1624      H1628   1.084       .  S
C1625      C1626   1.397       .  A
C1626      H1629   1.085       .  S
C1630      C1631   1.413       .  A
C1630      C1635   1.446       .  A
C1631      C1632   1.403       .  A
C1631      H1636   1.070       .  S
C1632      C1633   1.395       .  A
C1633      C1634   1.390       .  A
C1633      H1637   1.085       .  S
C1634      C1635   1.412       .  A
C1635      H1638   1.080       .  S
C1639      C1640   1.401       .  A
C1639      C1644   1.392       .  A
C1640      C1641   1.403       .  A
C1641      C1642   1.435       .  A
C1642      C1643   1.425       .  A
C1642      H1646   1.077       .  S
C1643      C1644   1.395       .  A
C1644      H1647   1.084       .  S
C1648      C1649   1.392       .  A
C1648      C1653   1.401       .  A
C1648      C1660   1.479       .  S
C1649      C1650   1.395       .  A
C1649      H1654   1.084       .  S
C1650      C1651   1.425       .  A
C1651      C1652   1.435       .  A
C1651      H1655   1.077       .  S
C1652      C1653   1.403       .  A
C1653      H1656   1.079       .  S
C1657      C1658   1.415       .  A
C1657      C1662   1.403       .  A
C1658      C1659   1.394       .  A
C1658      H1667   1.080       .  S
C1659      C1660   1.403       .  A
C1659      S1663   1.807       .  S
C1660      C1661   1.415       .  A
C1661      C1662   1.394       .  A
C1661      H1668   1.080       .  S
S1663      H1666   1.407       .  S
S1664      H1665   1.407       .  S
C1669      C1670   1.399       .  A
C1669      C1674   1.423       .  A
C1670      C1671   1.394       .  A
C1670      H1679   1.083       .  S
C1671      C1672   1.423       .  A
C1671      S1675   1.806       .  S
C1672      C1673   1.399       .  A
C1672      C1993   1.483       .  S
C1673      C1674   1.394       .  A
C1673      H2244   1.083       .  S
C1674      S1676   1.806       .  S
S1675      H1678   1.406       .  S
S1676      H1677   1.406       .  S
H1680      C2237   1.083       .  S
C1681      C1682   1.397       .  A
C1681      C1686   1.423       .  A
C1682      C1683   1.395       .  A
C1682      H1691   1.084   1_556  S
C1683      C1684   1.423       .  A
C1683      S1687   1.803       .  S
C1684      C1685   1.397       .  A
C1685      C1686   1.395       .  A
C1685      H1692   1.084       .  S
C1686      S1688   1.803       .  S
S1687      H1690   1.407   1_556  S
S1688      H1689   1.407       .  S
C1693      C1694   1.397       .  A
C1693      C1980   1.392       .  A
C1693      C1963   1.482       .  S
C1694      C1695   1.404       .  A
C1694      H1699   1.077       .  S
C1695      C1978   1.437       .  A
C1695      C1887   1.499       .  S
C1696      C1977   1.438       .  A
C1696      C1697   1.429       .  A
C1696      H1700   1.079       .  S
C1697      C1698   1.389       .  A
C1697      C1912   1.520       .  S
C1698      C1975   1.392       .  A
C1698      H1701   1.083       .  S
C1702      C1703   1.398       .  A
C1702      C1707   1.392       .  A
C1702      C1966   1.482       .  S
C1703      C1704   1.406       .  A
C1703      H1708   1.080       .  S
C1704      C1705   1.438       .  A
C1704      C1754   1.498       .  S
C1705      C1706   1.429       .  A
C1705      H1709   1.079       .  S
C1706      C1707   1.389       .  A
C1706      C1853   1.520       .  S
C1707      H1710   1.083       .  S
C1711      C1712   1.395       .  A
C1711      C1716   1.396       .  A
C1712      C1713   1.389       .  A
C1712      H1717   1.083       .  S
C1713      C1714   1.425       .  A
C1713      C1743   1.516       .  S
C1714      C1715   1.433       .  A
C1714      H1718   1.078       .  S
C1715      C1716   1.402       .  A
C1715      C1905   1.496       .  S
C1720      C1721   1.396       .  A
C1720      C1725   1.395       .  A
C1720      C1951   1.483       .  S
C1721      C1722   1.402       .  A
C1721      H1726   1.075       .  S
C1722      C1723   1.434       .  A
C1722      C1848   1.496       .  S
C1723      C1724   1.425       .  A
C1723      H1727   1.078       .  S
C1724      C1725   1.389       .  A
C1724      C1784   1.516       .  S
C1725      H1728   1.083       .  S
O1729      C1739   1.283       .  A
O1730      C1740   1.283       .  A
O1730     Cu2019   2.086       .  S
O1731      C1741   1.282       .  A
O1731     Cu1737   2.008       .  S
O1732      C1742   1.280       .  A
O1733      C1742   1.272       .  A
O1733     Cu1738   1.940       .  S
O1734      C1741   1.268       .  A
O1735      C1740   1.279       .  A
O1736      C1739   1.280       .  A
O1736     Cu1738   2.002       .  S
Cu1737     O2012   2.087       .  S
C1739      C1903   1.500       .  S
C1740      C1745   1.500       .  S
C1741      C1756   1.460       .  S
C1742      C2196   1.485       .  S
C1743      C1744   1.444       .  A
C1743      C1748   1.411       .  A
C1744      C1745   1.413       .  A
C1744      H1749   1.079       .  S
C1745      C1746   1.386       .  A
C1746      C1747   1.393       .  A
C1746      H1750   1.086       .  S
C1747      C1748   1.400       .  A
C1748      H1751   1.066       .  S
C1752      C1753   1.422       .  A
C1752      C1757   1.406       .  A
C1753      C1754   1.431       .  A
C1753      H1758   1.073       .  S
C1754      C1755   1.391       .  A
C1755      C1756   1.387       .  A
C1755      H1759   1.084       .  S
C1756      C1757   1.400       .  A
C1757      H1760   1.085       .  S
O1761      C1771   1.286       .  A
O1762      C1772   1.284       .  A
O1762     Cu1769   2.083       .  S
O1763      C1773   1.280       .  A
O1763     Cu1769   2.004       .  S
O1764      C1774   1.280       .  A
O1765      C1774   1.272       .  A
O1765     Cu1770   1.931       .  S
O1766      C1773   1.269       .  A
O1767      C1772   1.277   1_455  A
O1768      C1771   1.277       .  A
O1768     Cu1770   1.996       .  S
C1772      C1898   1.496       .  S
C1773      C1907   1.454       .  S
C1774      C1786   1.479       .  S
C1775      C1776   1.402       .  A
C1776      C1777   1.399       .  A
C1776      H1781   1.085       .  S
C1777      C1778   1.391       .  A
C1777      C1833   1.461       .  S
C1778      C1779   1.396       .  A
C1778      H1782   1.084       .  S
C1780      H1783   1.072   1_455  S
C1784      C1785   1.411       .  A
C1784      C1789   1.444       .  A
C1785      C1786   1.400       .  A
C1785      H1790   1.067       .  S
C1786      C1787   1.393       .  A
C1787      C1788   1.386       .  A
C1787      H1791   1.086       .  S
C1788      C1789   1.413       .  A
C1788      C1803   1.500       .  S
C1789      H1792   1.079       .  S
O1793      C1803   1.279       .  A
O1793     Cu1801   1.978       .  S
O1794      C1804   1.279       .  A
O1794     Cu1801   2.002       .  S
O1795      C1805   1.272       .  A
O1795     Cu1801   1.941   1_545  S
O1796      C1806   1.269       .  A
O1796     Cu1801   1.953       .  S
O1797      C1806   1.282       .  A
O1797     Cu1802   2.009       .  S
O1798      C1805   1.280   1_565  A
O1798     Cu1802   2.050       .  S
O1799      C1804   1.283       .  A
O1799     Cu1802   2.070       .  S
O1800      C1803   1.283       .  A
O1800     Cu1802   2.087       .  S
Cu1801    Cu1802   2.365       .  S
C1804      C2126   1.500       .  S
C1806      C1889   1.461       .  S
O1807      C1817   1.277       .  A
O1808      C1818   1.277       .  A
O1808     Cu1815   1.996   1_565  S
O1809      C1819   1.272       .  A
O1810      C1820   1.269       .  A
O1810     Cu1815   1.943       .  S
O1811      C1820   1.280       .  A
O1812      C1819   1.280       .  A
O1812     Cu1816   2.046       .  S
O1813      C1818   1.286       .  A
O1814      C1817   1.284       .  A
O1814     Cu1816   2.083       .  S
C1817      C1837   1.496       .  S
C1818      C1876   1.500       .  S
C1820      C1846   1.454   1_545  S
O1821      C1831   1.287       .  A
O1821     Cu1829   2.093       .  S
O1822      C1832   1.286       .  A
O1822     Cu1829   2.103       .  S
O1823      C1833   1.280       .  A
O1823     Cu1829   2.007       .  S
O1824      C1834   1.279       .  A
O1824     Cu1829   2.049       .  S
O1825      C1834   1.273       .  A
O1825     Cu1830   1.945       .  S
O1826      C1833   1.271       .  A
O1826     Cu1830   1.955       .  S
O1827      C1832   1.276       .  A
O1827     Cu1830   1.970       .  S
O1828      C1831   1.277       .  A
O1828     Cu1830   1.999       .  S
Cu1829    Cu1830   2.363       .  S
C1832      C1857   1.505       .  S
C1834      C2121   1.486       .  S
C1835      C1836   1.439       .  A
C1835      C1840   1.413       .  A
C1835      C1932   1.511       .  S
C1836      C1837   1.408       .  A
C1836      H1841   1.081       .  S
C1837      C1838   1.389       .  A
C1838      C1839   1.395       .  A
C1838      H1842   1.085       .  S
C1839      C1840   1.405       .  A
C1839      C2116   1.486   1_554  S
C1840      H1843   1.070       .  S
C1844      C1845   1.402       .  A
C1844      C1849   1.423       .  A
C1844      C2086   1.500   1_554  S
C1845      C1846   1.397       .  A
C1845      H1850   1.085   1_565  S
C1846      C1847   1.384       .  A
C1847      C1848   1.392       .  A
C1847      H1851   1.084       .  S
C1848      C1849   1.430       .  A
C1849      H1852   1.076       .  S
C1853      C1854   1.414       .  A
C1853      C1858   1.447       .  A
C1854      C1855   1.404       .  A
C1854      H1859   1.070       .  S
C1855      C1856   1.396       .  A
C1856      C1857   1.390       .  A
C1856      H1860   1.085       .  S
C1857      C1858   1.412       .  A
C1858      H1861   1.080       .  S
O1862      C1872   1.276       .  A
O1863      C1873   1.277       .  A
O1863     Cu1870   1.998       .  S
O1864      C1874   1.274       .  A
O1865      C1875   1.271       .  A
O1865     Cu2152   1.956   1_554  S
O1866      C1875   1.280       .  A
O1867      C1874   1.279       .  A
O1867     Cu1871   2.049       .  S
O1868      C1873   1.288       .  A
O1869      C1872   1.286       .  A
O1869     Cu1871   2.102       .  S
Cu1870     O2147   1.956       .  S
C1872      C2198   1.504       .  S
C1873      C1885   1.506       .  S
C1874      C1896   1.485       .  S
C1875      C1878   1.462       .  S
C1876      C1877   1.402       .  A
C1876      C1881   1.421       .  A
C1877      C1878   1.399       .  A
C1877      H1882   1.085       .  S
C1878      C1879   1.391       .  A
C1879      C1880   1.396       .  A
C1879      H1883   1.084       .  S
C1880      C1881   1.430       .  A
C1880      C1934   1.500       .  S
C1881      H1884   1.072       .  S
C1885      C1886   1.422       .  A
C1885      C1890   1.406       .  A
C1886      C1887   1.431       .  A
C1886      H1891   1.072       .  S
C1887      C1888   1.391       .  A
C1888      C1889   1.387       .  A
C1888      H1892   1.084       .  S
C1889      C1890   1.401       .  A
C1890      H1893   1.085       .  S
C1894      C1895   1.413       .  A
C1894      C1899   1.439       .  A
C1894      C1925   1.511       .  S
C1895      C1896   1.405       .  A
C1895      H1900   1.070       .  S
C1896      C1897   1.395       .  A
C1897      C1898   1.389       .  A
C1897      H1901   1.085       .  S
C1898      C1899   1.409       .  A
C1899      H1902   1.081       .  S
C1903      C1908   1.402       .  A
C1904      C1905   1.430       .  A
C1904      H1909   1.076       .  S
C1906      C1907   1.384       .  A
C1906      H1910   1.084       .  S
C1907      C1908   1.397       .  A
C1908      H1911   1.085       .  S
C1912      C1913   1.413       .  A
C1912      C1917   1.447       .  A
C1913      C1914   1.404       .  A
C1913      H1918   1.070       .  S
C1914      C1915   1.396       .  A
C1914      C2024   1.485       .  S
C1915      C1916   1.390       .  A
C1915      H1919   1.085       .  S
C1916      C1917   1.413       .  A
C1916      C2154   1.505       .  S
C1917      H1920   1.080       .  S
C1921      C1922   1.401       .  A
C1921      C1926   1.392       .  A
C1922      C1923   1.403       .  A
C1923      C1924   1.435       .  A
C1924      C1925   1.425       .  A
C1924      H1928   1.077       .  S
C1925      C1926   1.395       .  A
C1926      H1929   1.084       .  S
C1930      C1931   1.392       .  A
C1930      C1935   1.401       .  A
C1930      C1942   1.480       .  S
C1931      C1932   1.395       .  A
C1931      H1936   1.084       .  S
C1932      C1933   1.425       .  A
C1933      C1934   1.435       .  A
C1933      H1937   1.077       .  S
C1934      C1935   1.403       .  A
C1935      H1938   1.079       .  S
C1939      C1940   1.415       .  A
C1939      C1944   1.403       .  A
C1940      C1941   1.394       .  A
C1940      H1949   1.080       .  S
C1941      C1942   1.403       .  A
C1941      S1945   1.807       .  S
C1942      C1943   1.415       .  A
C1943      C1944   1.394       .  A
C1943      H1950   1.080       .  S
S1945      H1948   1.407       .  S
S1946      H1947   1.407       .  S
C1951      C1952   1.399       .  A
C1951      C1956   1.423       .  A
C1952      C1953   1.394       .  A
C1952      H1961   1.083       .  S
C1953      C1954   1.423       .  A
C1953      S1957   1.806       .  S
C1954      C1955   1.398   1_565  A
C1955      C1956   1.394   1_545  A
C1956      S1958   1.806   1_565  S
S1957      H1960   1.406       .  S
S1958      H1959   1.406       .  S
C1963      C1964   1.398       .  A
C1963      C1968   1.422       .  A
C1964      C1965   1.396       .  A
C1964      H1973   1.084       .  S
C1965      C1966   1.424       .  A
C1965      S1969   1.803       .  S
C1966      C1967   1.397       .  A
C1967      C1968   1.391       .  A
C1967      H1974   1.085       .  S
C1968      S1970   1.795       .  S
S1969      H1972   1.407       .  S
S1970      H1971   1.406       .  S
C1975      C1976   1.398   1_554  A
C1975      C2245   1.481   1_554  S
C1976      C1977   1.405   1_556  A
C1976      H1981   1.079       .  S
C1977      C2169   1.499   1_554  S
C1978      C1979   1.429       .  A
C1978      H1982   1.079       .  S
C1979      C1980   1.390       .  A
C1979      C2194   1.518       .  S
C1980      H1983   1.083       .  S
C1984      C1985   1.398       .  A
C1984      C1989   1.392       .  A
C1984      C2248   1.481       .  S
C1985      C1986   1.405       .  A
C1985      H1990   1.079       .  S
C1986      C1987   1.438       .  A
C1986      C2036   1.499       .  S
C1987      C1988   1.429       .  A
C1987      H1991   1.079       .  S
C1988      C1989   1.389       .  A
C1988      C2135   1.520       .  S
C1989      H1992   1.083       .  S
C1993      C1994   1.395       .  A
C1993      C1998   1.396       .  A
C1994      C1995   1.389       .  A
C1994      H1999   1.083       .  S
C1995      C1996   1.425       .  A
C1995      C2025   1.516       .  S
C1996      C1997   1.434       .  A
C1996      H2000   1.078       .  S
C1997      C1998   1.402       .  A
C1997      C2187   1.496       .  S
C2002      C2003   1.396       .  A
C2002      C2007   1.395       .  A
C2002      C2233   1.483       .  S
C2003      C2004   1.402       .  A
C2003      H2008   1.075       .  S
C2004      C2005   1.434       .  A
C2004      C2130   1.496       .  S
C2005      C2006   1.425       .  A
C2005      H2009   1.078       .  S
C2006      C2007   1.389       .  A
C2006      C2066   1.516       .  S
C2007      H2010   1.083       .  S
O2011      C2021   1.283       .  A
O2012      C2022   1.283       .  A
O2013      C2023   1.282   1_554  A
O2013     Cu2019   2.009       .  S
O2014      C2024   1.280       .  A
O2015      C2024   1.272       .  A
O2015     Cu2020   1.940       .  S
O2016      C2023   1.268       .  A
O2017      C2022   1.279       .  A
O2018      C2021   1.280       .  A
O2018     Cu2020   2.002   1_556  S
C2021      C2185   1.500       .  S
C2022      C2027   1.500       .  S
C2023      C2038   1.460       .  S
C2025      C2026   1.444       .  A
C2025      C2030   1.411       .  A
C2026      C2027   1.413       .  A
C2026      H2031   1.079       .  S
C2027      C2028   1.386       .  A
C2028      C2029   1.393       .  A
C2028      H2032   1.086       .  S
C2029      C2030   1.400       .  A
C2030      H2033   1.066       .  S
C2034      C2035   1.422       .  A
C2034      C2039   1.406       .  A
C2035      C2036   1.431       .  A
C2035      H2040   1.073       .  S
C2036      C2037   1.391       .  A
C2037      C2038   1.387       .  A
C2037      H2041   1.084       .  S
C2038      C2039   1.401       .  A
C2039      H2042   1.085       .  S
O2043      C2053   1.286       .  A
O2044      C2054   1.284       .  A
O2044     Cu2051   2.083       .  S
O2045      C2055   1.280       .  A
O2045     Cu2051   2.003       .  S
O2046      C2056   1.280       .  A
O2047      C2056   1.272       .  A
O2047     Cu2052   1.931       .  S
O2048      C2055   1.269       .  A
O2049      C2054   1.277   1_455  A
O2050      C2053   1.277       .  A
O2050     Cu2052   1.996       .  S
C2054      C2180   1.496       .  S
C2055      C2189   1.454       .  S
C2056      C2068   1.479       .  S
C2057      C2058   1.402       .  A
C2058      C2059   1.399       .  A
C2058      H2063   1.085       .  S
C2059      C2060   1.391       .  A
C2059      C2115   1.462       .  S
C2060      C2061   1.396       .  A
C2060      H2064   1.084       .  S
C2062      H2065   1.072   1_455  S
C2066      C2067   1.411       .  A
C2066      C2071   1.444       .  A
C2067      C2068   1.400       .  A
C2067      H2072   1.067       .  S
C2068      C2069   1.393       .  A
C2069      C2070   1.386       .  A
C2069      H2073   1.086       .  S
C2070      C2071   1.413       .  A
C2070      C2085   1.500       .  S
C2071      H2074   1.079       .  S
O2075      C2085   1.279       .  A
O2075     Cu2083   1.979       .  S
O2076      C2086   1.280       .  A
O2076     Cu2083   2.002       .  S
O2077      C2087   1.272       .  A
O2077     Cu2083   1.940   1_545  S
O2078      C2088   1.268       .  A
O2078     Cu2083   1.952       .  S
O2079      C2088   1.282       .  A
O2079     Cu2084   2.009       .  S
O2080      C2087   1.280   1_565  A
O2080     Cu2084   2.050       .  S
O2081      C2086   1.283       .  A
O2081     Cu2084   2.069       .  S
O2082      C2085   1.283       .  A
O2082     Cu2084   2.086       .  S
Cu2083    Cu2084   2.365       .  S
C2088      C2171   1.460       .  S
O2089      C2099   1.277       .  A
O2090      C2100   1.277       .  A
O2090     Cu2097   1.995   1_565  S
O2091      C2101   1.272       .  A
O2092      C2102   1.269       .  A
O2092     Cu2097   1.943       .  S
O2093      C2102   1.280       .  A
O2094      C2101   1.280       .  A
O2094     Cu2098   2.046       .  S
O2095      C2100   1.286       .  A
O2096      C2099   1.284       .  A
O2096     Cu2098   2.083       .  S
C2099      C2119   1.496       .  S
C2100      C2158   1.500       .  S
C2102      C2128   1.454   1_545  S
O2103      C2113   1.288       .  A
O2103     Cu2111   2.094       .  S
O2104      C2114   1.287       .  A
O2104     Cu2111   2.103       .  S
O2105      C2115   1.280       .  A
O2105     Cu2111   2.007       .  S
O2106      C2116   1.279       .  A
O2106     Cu2111   2.050       .  S
O2107      C2116   1.273       .  A
O2107     Cu2112   1.945       .  S
O2108      C2115   1.271       .  A
O2108     Cu2112   1.956       .  S
O2109      C2114   1.276       .  A
O2109     Cu2112   1.970       .  S
O2110      C2113   1.277       .  A
O2110     Cu2112   1.999       .  S
Cu2111    Cu2112   2.363       .  S
C2114      C2139   1.505       .  S
C2117      C2118   1.439       .  A
C2117      C2122   1.413       .  A
C2117      C2214   1.511       .  S
C2118      C2119   1.408       .  A
C2118      H2123   1.081       .  S
C2119      C2120   1.389       .  A
C2120      C2121   1.394       .  A
C2120      H2124   1.085       .  S
C2121      C2122   1.405       .  A
C2122      H2125   1.070       .  S
C2126      C2127   1.402       .  A
C2126      C2131   1.423       .  A
C2127      C2128   1.397       .  A
C2127      H2132   1.085   1_565  S
C2128      C2129   1.384       .  A
C2129      C2130   1.392       .  A
C2129      H2133   1.084       .  S
C2130      C2131   1.430       .  A
C2131      H2134   1.076       .  S
C2135      C2136   1.413       .  A
C2135      C2140   1.447       .  A
C2136      C2137   1.404       .  A
C2136      H2141   1.070       .  S
C2137      C2138   1.396       .  A
C2138      C2139   1.390       .  A
C2138      H2142   1.085       .  S
C2139      C2140   1.413       .  A
C2140      H2143   1.080       .  S
O2144      C2154   1.276   1_556  A
O2145      C2155   1.277       .  A
O2145     Cu2152   1.999       .  S
O2146      C2156   1.273       .  A
O2147      C2157   1.271       .  A
O2148      C2157   1.280       .  A
O2149      C2156   1.279       .  A
O2149     Cu2153   2.050       .  S
O2150      C2155   1.288       .  A
O2151      C2154   1.287       .  A
O2151     Cu2153   2.103   1_554  S
C2155      C2167   1.506       .  S
C2156      C2178   1.486       .  S
C2157      C2160   1.461       .  S
C2158      C2159   1.402       .  A
C2158      C2163   1.421       .  A
C2159      C2160   1.399       .  A
C2159      H2164   1.085       .  S
C2160      C2161   1.391       .  A
C2161      C2162   1.396       .  A
C2161      H2165   1.084       .  S
C2162      C2163   1.430       .  A
C2162      C2216   1.500       .  S
C2163      H2166   1.072       .  S
C2167      C2168   1.422       .  A
C2167      C2172   1.406       .  A
C2168      C2169   1.431       .  A
C2168      H2173   1.073   1_556  S
C2169      C2170   1.391       .  A
C2170      C2171   1.387       .  A
C2170      H2174   1.084       .  S
C2171      C2172   1.401       .  A
C2172      H2175   1.085       .  S
C2176      C2177   1.413       .  A
C2176      C2181   1.439       .  A
C2176      C2207   1.511       .  S
C2177      C2178   1.405       .  A
C2177      H2182   1.070       .  S
C2178      C2179   1.395       .  A
C2179      C2180   1.389       .  A
C2179      H2183   1.085       .  S
C2180      C2181   1.409       .  A
C2181      H2184   1.081       .  S
C2185      C2190   1.402       .  A
C2186      C2187   1.430       .  A
C2186      H2191   1.076       .  S
C2188      C2189   1.384       .  A
C2188      H2192   1.084       .  S
C2189      C2190   1.397       .  A
C2190      H2193   1.085       .  S
C2194      C2195   1.413       .  A
C2194      C2199   1.446       .  A
C2195      C2196   1.403       .  A
C2195      H2200   1.070       .  S
C2196      C2197   1.395       .  A
C2197      C2198   1.390       .  A
C2197      H2201   1.085       .  S
C2198      C2199   1.412       .  A
C2199      H2202   1.080       .  S
C2203      C2204   1.401       .  A
C2203      C2208   1.392       .  A
C2204      C2205   1.403       .  A
C2205      C2206   1.435       .  A
C2206      C2207   1.425       .  A
C2206      H2210   1.077       .  S
C2207      C2208   1.395       .  A
C2208      H2211   1.084       .  S
C2212      C2213   1.392       .  A
C2212      C2217   1.401       .  A
C2212      C2224   1.479       .  S
C2213      C2214   1.395       .  A
C2213      H2218   1.084       .  S
C2214      C2215   1.425       .  A
C2215      C2216   1.435       .  A
C2215      H2219   1.077       .  S
C2216      C2217   1.403       .  A
C2217      H2220   1.079       .  S
C2221      C2222   1.415       .  A
C2221      C2226   1.403       .  A
C2222      C2223   1.394       .  A
C2222      H2231   1.080       .  S
C2223      C2224   1.403       .  A
C2223      S2227   1.807       .  S
C2224      C2225   1.415       .  A
C2225      C2226   1.394       .  A
C2225      H2232   1.080       .  S
S2227      H2230   1.407       .  S
S2228      H2229   1.407       .  S
C2233      C2234   1.398       .  A
C2233      C2238   1.423       .  A
C2234      C2235   1.394       .  A
C2234      H2243   1.083       .  S
C2235      C2236   1.423       .  A
C2235      S2239   1.806       .  S
C2236      C2237   1.399   1_565  A
C2237      C2238   1.394   1_545  A
C2238      S2240   1.806   1_565  S
S2239      H2242   1.406       .  S
S2240      H2241   1.406       .  S
C2245      C2246   1.397       .  A
C2245      C2250   1.423       .  A
C2246      C2247   1.395       .  A
C2246      H2255   1.084   1_556  S
C2247      C2248   1.423       .  A
C2247      S2251   1.803       .  S
C2248      C2249   1.397       .  A
C2249      C2250   1.395       .  A
C2249      H2256   1.084       .  S
C2250      S2252   1.803       .  S
S2251      H2254   1.407   1_556  S
S2252      H2253   1.407       .  S
