geometry optimzed in LAMMPS
_audit_creation_date              2020-11-30 
_audit_creation_method            'lammps2cif' 
_symmetry_space_group_name_H-M    'P1' 
_symmetry_Int_Tables_number       1 
_symmetry_cell_setting            triclinic 
loop_ 
_symmetry_equiv_pos_as_xyz 
  x,y,z 
_cell_length_a                    62.17272907 
_cell_length_b                    62.26476497231835 
_cell_length_c                    95.644700183076 
_cell_angle_alpha                 89.99620029127689 
_cell_angle_beta                  90.00401136411352 
_cell_angle_gamma                 121.32319542878058 
loop_ 
_atom_site_label 
_atom_site_type_symbol 
_atom_site_fract_x 
_atom_site_fract_y 
_atom_site_fract_z 
_atom_site_charge 
N1          N  0.30024740  0.29979147  0.64108881    -0.25700
N2          N  0.31508348  0.31392973  0.63077142    -0.33600
C3          C  0.30291832  0.32260349  0.62319804     0.02600
C4          C  0.27938937  0.31349143  0.62898776     0.08600
C5          C  0.27824569  0.29911824  0.64030202    -0.04500
H6          H  0.31053510  0.33437403  0.61402240     0.09300
H7          H  0.26250576  0.28867353  0.64733008     0.10500
Cu8        Cu  0.35098820  0.32038493  0.62684595     0.44200
Cu9        Cu  0.31024957  0.28141815  0.65557794     0.42000
Cu10       Cu  0.37246261  0.29069249  0.65031340     0.43900
N11         N  0.38595448  0.32359752  0.62483990    -0.33100
N12         N  0.39372848  0.31255744  0.63357046    -0.27400
C13         C  0.41682909  0.31793943  0.62972076    -0.03500
C14         C  0.42392076  0.33308637  0.61801994     0.08700
C15         C  0.40398803  0.33635376  0.61516065     0.02500
H16         H  0.42764684  0.31133304  0.63506987     0.10200
H17         H  0.40268329  0.34719173  0.60671985     0.09300
N18         N  0.34828323  0.26900701  0.66624139    -0.34600
N19         N  0.32556851  0.26541494  0.66823356    -0.26700
C20         C  0.31485686  0.24999989  0.67928667    -0.02000
C21         C  0.33171422  0.24376231  0.68439074     0.06600
C22         C  0.35263646  0.25606324  0.67592631     0.04700
H23         H  0.29616465  0.24366979  0.68321223     0.09800
H24         H  0.36969543  0.25548013  0.67664143     0.08700
N25         N  0.92601827  0.26231970  0.66813058    -0.25700
N26         N  0.90654792  0.26515309  0.66631908    -0.33600
C27         C  0.88858386  0.25084776  0.67569489     0.02600
C28         C  0.89723917  0.23849656  0.68375374     0.08600
C29         C  0.92098553  0.24612544  0.67872629    -0.04500
H30         H  0.87061811  0.24960211  0.67657990     0.09300
H31         H  0.93367550  0.24039941  0.68247693     0.10500
Cu32       Cu  0.90550526  0.28843851  0.65118139     0.44200
Cu33       Cu  0.95832756  0.28074527  0.65597847     0.42000
Cu34       Cu  0.95967119  0.32210445  0.62840262     0.43900
N35         N  0.90802456  0.31225668  0.63526982    -0.33100
N36         N  0.92771836  0.32456210  0.62690410    -0.27400
C37         C  0.92303821  0.33785958  0.61759454    -0.03500
C38         C  0.89933461  0.33362566  0.62030863     0.08700
C39         C  0.89031617  0.31738344  0.63152900     0.02500
H40         H  0.93582307  0.34949273  0.60940885     0.10200
H41         H  0.87214490  0.30962968  0.63652579     0.09300
N42         N  0.98863988  0.31554875  0.63224186    -0.34600
N43         N  0.98814803  0.30061395  0.64225408    -0.26700
C44         C  0.00949850  0.30009469  0.64171713    -0.02000
C45         C  0.02398792  0.31540464  0.63088765     0.06600
C46         C  0.01032126  0.32490319  0.62507085     0.04700
H47         H  0.01391579  0.28908548  0.64857048     0.09800
H48         H  0.01553856  0.33738294  0.61617436     0.08700
N49         N  0.19270826  0.32942253  0.60897377    -0.25700
N50         N  0.20899665  0.34168836  0.59878451    -0.33600
C51         C  0.22966412  0.34029288  0.60080198     0.02600
C52         C  0.22622378  0.32649867  0.61277758     0.08600
C53         C  0.20264474  0.31984414  0.61771578    -0.04500
H54         H  0.24605835  0.34887325  0.59408626     0.09300
H55         H  0.19352555  0.30915905  0.62706013     0.10500
Cu56       Cu  0.20285967  0.35987101  0.58240023     0.44200
Cu57       Cu  0.15814747  0.32725034  0.61084577     0.42000
Cu58       Cu  0.14439373  0.35776231  0.58268819     0.43900
N59         N  0.19164905  0.37449116  0.56635949    -0.33100
N60         N  0.16982422  0.37336420  0.56645352    -0.27400
C61         C  0.16763365  0.38392587  0.55469583    -0.03500
C62         C  0.18914277  0.39207789  0.54686686     0.08700
C63         C  0.20402233  0.38588285  0.55450391     0.02500
H64         H  0.15165030  0.38564871  0.55211018     0.10200
H65         H  0.22243872  0.38940484  0.55168890     0.09300
N66         N  0.12164290  0.34159183  0.59994501    -0.34600
N67         N  0.12623571  0.33026551  0.61021179    -0.26700
C68         C  0.10747131  0.32191831  0.61966574    -0.02000
C69         C  0.09054353  0.32842734  0.61502955     0.06600
C70         C  0.10002841  0.34081739  0.60255852     0.04700
H71         H  0.10628248  0.31191616  0.62916344     0.09800
H72         H  0.09183878  0.34867038  0.59583179     0.08700
N73         N  0.98219171  0.62912389  0.64498228    -0.25700
N74         N  0.98345352  0.61461055  0.63531950    -0.33600
C75         C  0.00504973  0.62803090  0.62812216     0.02600
C76         C  0.01789765  0.65204706  0.63354170     0.08600
C77         C  0.00299538  0.65221434  0.64418251    -0.04500
H78         H  0.01071886  0.62092642  0.61944405     0.09300
H79         H  0.00674344  0.66799142  0.65070499     0.10500
Cu80       Cu  0.95536237  0.57761191  0.63191754     0.44200
Cu81       Cu  0.95182558  0.61714507  0.65847261     0.42000
Cu82       Cu  0.89950234  0.55378051  0.65373490     0.43900
N83         N  0.92410301  0.54173648  0.63021803    -0.33100
N84         N  0.90376113  0.53305330  0.63811880    -0.27400
C85         C  0.88673466  0.50948155  0.63406222    -0.03500
C86         C  0.89693309  0.50320744  0.62314347     0.08700
C87         C  0.92056133  0.52396146  0.62092766     0.02500
H88         H  0.86817523  0.49798387  0.63856679     0.10200
H89         H  0.93400946  0.52620156  0.61300966     0.09300
N90         N  0.90003929  0.57819686  0.66875072    -0.34600
N91         N  0.91930621  0.60137999  0.67055419    -0.26700
C92         C  0.91407073  0.61217077  0.68116324    -0.02000
C93         C  0.89041735  0.59492349  0.68622095     0.06600
C94         C  0.88201053  0.57363058  0.67814439     0.04700
H95         H  0.92657989  0.63111364  0.68490971     0.09800
H96         H  0.86418338  0.55608196  0.67905440     0.08700
N97         N  0.30088995  0.94922268  0.64446143    -0.25700
N98         N  0.31569370  0.94789190  0.63500791    -0.33600
C99         C  0.30256917  0.92609945  0.62798447     0.02600
C100        C  0.27845492  0.91319311  0.63329997     0.08600
C101        C  0.27789684  0.92826690  0.64369214    -0.04500
H102        H  0.30998136  0.92027037  0.61953642     0.09300
H103        H  0.26197160  0.92445683  0.65012161     0.10500
Cu104      Cu  0.35278387  0.97590592  0.63170374     0.44200
Cu105      Cu  0.31250211  0.97958825  0.65783501     0.42000
Cu106      Cu  0.37650473  0.03133797  0.65352360     0.43900
N107        N  0.38872833  0.00705852  0.62998879    -0.33100
N108        N  0.39739106  0.02733310  0.63791048    -0.27400
C109        C  0.42098549  0.04438607  0.63386301    -0.03500
C110        C  0.42729750  0.03425742  0.62292641     0.08700
C111        C  0.40653988  0.01065295  0.62069199     0.02500
H112        H  0.43247029  0.06290590  0.63838757     0.10200
H113        H  0.40432240  0.99726078  0.61275712     0.09300
N114        N  0.35199992  0.03078499  0.66848443    -0.34600
N115        N  0.32857813  0.01181632  0.67008487    -0.26700
C116        C  0.31778961  0.01708167  0.68067995    -0.02000
C117        C  0.33529458  0.04042814  0.68593860     0.06600
C118        C  0.35673709  0.04863930  0.67800765     0.04700
H119        H  0.29866886  0.00480877  0.68427229     0.09800
H120        H  0.37447718  0.06623316  0.67907803     0.08700
N121        N  0.18882941  0.80998943  0.61280472    -0.25700
N122        N  0.20285205  0.81700492  0.60136038    -0.33600
C123        C  0.22381720  0.83946951  0.60360802     0.02600
C124        C  0.22290257  0.84686021  0.61705945     0.08600
C125        C  0.20057603  0.82786575  0.62265071    -0.04500
H126        H  0.23864508  0.84958662  0.59601108     0.09300
H127        H  0.19337173  0.82705954  0.63305839     0.10500
Cu128      Cu  0.19383787  0.79585776  0.58320935     0.44200
Cu129      Cu  0.15434780  0.77655062  0.61452987     0.42000
Cu130      Cu  0.13595958  0.73659672  0.58373561     0.43900
N131        N  0.18258937  0.77006356  0.56704198    -0.33100
N132        N  0.16128042  0.74803948  0.56731060    -0.27400
C133        C  0.15992185  0.73489895  0.55583203    -0.03500
C134        C  0.18139054  0.74945233  0.54801758     0.08700
C135        C  0.19539405  0.77159103  0.55536847     0.02500
H136        H  0.14472816  0.71598581  0.55353488     0.10200
H137        H  0.21377637  0.78734905  0.55264573     0.09300
N138        N  0.11399105  0.72802818  0.60152939    -0.34600
N139        N  0.12061608  0.74234217  0.61283497    -0.26700
C140        C  0.10235287  0.73088959  0.62252473    -0.02000
C141        C  0.08351356  0.70843512  0.61696521     0.06600
C142        C  0.09140599  0.70716381  0.60369763     0.04700
H143        H  0.10289820  0.73825712  0.63284996     0.09800
H144        H  0.08164189  0.69206735  0.59621610     0.08700
N145        N  0.56638078  0.13951989  0.57257741    -0.35100
N146        N  0.51700569  0.10781516  0.58508079    -0.55600
N147        N  0.53484432  0.07749838  0.59791429    -0.35000
N148        N  0.58330305  0.10748923  0.58417440    -0.55600
C149        C  0.55305980  0.14792964  0.56578972     0.28500
C150        C  0.58817648  0.14806671  0.56548497     0.28500
C151        C  0.50998805  0.06340335  0.60088849     0.28500
C152        C  0.54486886  0.06306071  0.60029592     0.28500
C153        C  0.51388730  0.12631745  0.58007625     0.37200
C154        C  0.49749477  0.09396277  0.59381384     0.37200
C155        C  0.60545714  0.12612033  0.57899411     0.37200
C156        C  0.58875746  0.09336599  0.59247606     0.37200
C157        C  0.56663825  0.16214357  0.55431977    -0.20300
C158        C  0.58879051  0.16222139  0.55412231    -0.20300
C159        C  0.50412356  0.03970928  0.60525734    -0.20300
C160        C  0.52613853  0.03948819  0.60487735    -0.20300
C161        C  0.49206868  0.12397643  0.58545729    -0.21400
C162        C  0.48168135  0.10348007  0.59417930    -0.21400
C163        C  0.62505246  0.12363005  0.58386646    -0.21400
C164        C  0.61447226  0.10286280  0.59240044    -0.21400
C165        C  0.52972252  0.14444864  0.57013693    -0.16700
C166        C  0.60810485  0.14459285  0.56938777    -0.16700
C167        C  0.57072180  0.07122188  0.59945874    -0.16700
C168        C  0.49295042  0.07198899  0.60078055    -0.16700
H169        H  0.56123522  0.17164208  0.54690913     0.16200
H170        H  0.60372102  0.17174947  0.54650785     0.16200
H171        H  0.48593734  0.02429377  0.60856940     0.16200
H172        H  0.52818881  0.02387011  0.60785057     0.16200
H173        H  0.48433837  0.13568744  0.58325226     0.14500
H174        H  0.46432189  0.09625310  0.59999236     0.14500
H175        H  0.64488614  0.13544419  0.58146525     0.14500
H176        H  0.62454536  0.09549817  0.59783852     0.14500
H177        H  0.56224668  0.13106711  0.58235389     0.27700
H178        H  0.54489707  0.09674085  0.59615146     0.27700
N179        N  0.50202534  0.26270044  0.55324581    -0.25700
N180        N  0.51696057  0.25947910  0.56169206    -0.33600
C181        C  0.52932673  0.27969422  0.57006345     0.02600
C182        C  0.52158087  0.29624722  0.56676819     0.08600
C183        C  0.50431291  0.28494949  0.55607850    -0.04500
H184        H  0.54294008  0.28217131  0.57792939     0.09300
H185        H  0.49451204  0.29254831  0.55059174     0.10500
Cu186      Cu  0.51948569  0.22759101  0.56146431     0.44200
Cu187      Cu  0.48023565  0.23732067  0.53778314     0.42000
Cu188      Cu  0.48189911  0.18011862  0.53537276     0.43900
N189        N  0.51714051  0.19324403  0.55995695    -0.33100
N190        N  0.50320226  0.17572995  0.55063934    -0.27400
C191        C  0.50542839  0.15559543  0.55280749    -0.03500
C192        C  0.52157070  0.16084863  0.56396319     0.08700
C193        C  0.52866932  0.18480941  0.56823398     0.02500
H194        H  0.49607577  0.13847740  0.54670786     0.10200
H195        H  0.54113190  0.19527046  0.57679528     0.09300
N196        N  0.46283124  0.18979773  0.52124360    -0.34600
N197        N  0.46218298  0.21065538  0.52221767    -0.26700
C198        C  0.44902671  0.21182056  0.51137922    -0.02000
C199        C  0.44103201  0.19070395  0.50324411     0.06600
C200        C  0.45005953  0.17712008  0.50973069     0.04700
H201        H  0.44590756  0.22712014  0.50946073     0.09800
H202        H  0.44786053  0.15955233  0.50624817     0.08700
N203        N  0.56840461  0.36366793  0.57578691    -0.35100
N204        N  0.51742853  0.34685435  0.58556868    -0.55600
N205        N  0.53524148  0.39672681  0.59685020    -0.35000
N206        N  0.58525092  0.41451057  0.58544654    -0.55600
C207        C  0.55530823  0.34098784  0.56942236     0.28500
C208        C  0.59114899  0.37666188  0.56943832     0.28500
C209        C  0.51014744  0.38600167  0.59887165     0.28500
C210        C  0.54598321  0.42180627  0.59874487     0.28500
C211        C  0.51387869  0.32449991  0.58136832     0.37200
C212        C  0.49665073  0.34169653  0.59289230     0.37200
C213        C  0.60767805  0.41799359  0.58136721     0.37200
C214        C  0.59037793  0.43522917  0.59278259     0.37200
C215        C  0.57007733  0.33940565  0.55908178    -0.20300
C216        C  0.59266470  0.36188900  0.55909196    -0.20300
C217        C  0.50489630  0.40449772  0.60218215    -0.20300
C218        C  0.52748346  0.42706955  0.60209587    -0.20300
C219        C  0.49060820  0.30508298  0.58587167    -0.21400
C220        C  0.47971002  0.31595963  0.59317837    -0.21400
C221        C  0.62710999  0.44114829  0.58596853    -0.21400
C222        C  0.61616783  0.45205739  0.59320292    -0.21400
C223        C  0.53068621  0.32135411  0.57290595    -0.16700
C224        C  0.61087317  0.40120957  0.57293584    -0.16700
C225        C  0.57212696  0.43981331  0.59846568    -0.16700
C226        C  0.49211585  0.35989395  0.59867247    -0.16700
H227        H  0.56507129  0.32372927  0.55216481     0.16200
H228        H  0.60835752  0.36682711  0.55218171     0.16200
H229        H  0.48669941  0.40197476  0.60455929     0.16200
H230        H  0.53001960  0.44526512  0.60440705     0.16200
H231        H  0.48227987  0.28514770  0.58403489     0.14500
H232        H  0.46130083  0.30604354  0.59802578     0.14500
H233        H  0.64709615  0.44938099  0.58425315     0.14500
H234        H  0.62608054  0.47038629  0.59811172     0.14500
H235        H  0.56307367  0.36900075  0.58479145     0.27700
H236        H  0.54478758  0.38722975  0.59593983     0.27700
N237        N  0.66968105  0.42972523  0.55329284    -0.25700
N238        N  0.67265735  0.41443358  0.56156144    -0.33600
C239        C  0.65238970  0.40211833  0.56992898     0.02600
C240        C  0.63606331  0.41026968  0.56682958     0.08600
C241        C  0.64756565  0.42773338  0.55625335    -0.04500
H242        H  0.64968440  0.38820496  0.57763413     0.09300
H243        H  0.64012880  0.43778214  0.55087841     0.10500
Cu244      Cu  0.70425742  0.41125863  0.56106099     0.44200
Cu245      Cu  0.69494584  0.45128678  0.53770081     0.42000
Cu246      Cu  0.75049999  0.44688192  0.53404089     0.43900
N247        N  0.73859816  0.41343068  0.55930753    -0.33100
N248        N  0.75557370  0.42655023  0.54957255    -0.27400
C249        C  0.77589048  0.42455530  0.55164678    -0.03500
C250        C  0.77137544  0.40948342  0.56321323     0.08700
C251        C  0.74760948  0.40269807  0.56779370     0.02500
H252        H  0.79263874  0.43335889  0.54521147     0.10200
H253        H  0.73765408  0.39093872  0.57667981     0.09300
N254        N  0.74119215  0.46664548  0.52026848    -0.34600
N255        N  0.72103282  0.46846423  0.52173850    -0.26700
C256        C  0.72014496  0.48217648  0.51112873    -0.02000
C257        C  0.74070939  0.48929152  0.50263314     0.06600
C258        C  0.75367810  0.47917534  0.50866340     0.04700
H259        H  0.70542405  0.48632437  0.50962577     0.09800
H260        H  0.77074518  0.48057307  0.50484758     0.08700
N261        N  0.66673521  0.17540607  0.54951088    -0.25700
N262        N  0.66967315  0.19440608  0.55720045    -0.33600
C263        C  0.64934544  0.18637909  0.56542188     0.02600
C264        C  0.63300954  0.16109023  0.56286279     0.08600
C265        C  0.64454861  0.15469290  0.55273217    -0.04500
H266        H  0.64677880  0.19800170  0.57282289     0.09300
H267        H  0.63726005  0.13643264  0.54796615     0.10500
Cu268      Cu  0.70187697  0.22991974  0.55682019     0.44200
Cu269      Cu  0.69286072  0.17883363  0.53479351     0.42000
Cu270      Cu  0.75276170  0.23803266  0.53463442     0.43900
N271        N  0.73760371  0.26185793  0.55684573    -0.33100
N272        N  0.75647764  0.26448605  0.54912275    -0.27400
C273        C  0.77733615  0.28666766  0.55214610    -0.03500
C274        C  0.77114435  0.29850994  0.56217684     0.08700
C275        C  0.74586600  0.28237292  0.56489882     0.02500
H276        H  0.79555204  0.29371160  0.54733549     0.10200
H277        H  0.73441305  0.28518708  0.57231255     0.09300
N278        N  0.74320711  0.20931662  0.52042554    -0.34600
N279        N  0.72135481  0.18776076  0.52044614    -0.26700
C280        C  0.72086915  0.17357796  0.50969404    -0.02000
C281        C  0.74348052  0.18688873  0.50267060     0.06600
C282        C  0.75721087  0.20942511  0.50967462     0.04700
H283        H  0.70513357  0.15510374  0.50712173     0.09800
H284        H  0.77584971  0.22487649  0.50708136     0.08700
N285        N  0.79322253  0.36516353  0.57165707    -0.35100
N286        N  0.82437356  0.34772919  0.58387123    -0.55600
N287        N  0.85388798  0.39587824  0.59801353    -0.35000
N288        N  0.82446042  0.41424678  0.58452601    -0.55600
C289        C  0.78465331  0.34338810  0.56458562     0.28500
C290        C  0.78484541  0.37847393  0.56485243     0.28500
C291        C  0.86790805  0.38557396  0.60091562     0.28500
C292        C  0.86782711  0.42054943  0.60135801     0.28500
C293        C  0.80590511  0.32575166  0.57845357     0.37200
C294        C  0.83796560  0.34201473  0.59245081     0.37200
C295        C  0.80596639  0.41731521  0.57939761     0.37200
C296        C  0.83787906  0.43345309  0.59350452     0.37200
C297        C  0.77055751  0.34279572  0.55318711    -0.20300
C298        C  0.77066246  0.36492810  0.55336223    -0.20300
C299        C  0.89103138  0.40392189  0.60626265    -0.20300
C300        C  0.89097702  0.42598856  0.60654556    -0.20300
C301        C  0.80798992  0.30600498  0.58344271    -0.21400
C302        C  0.82833190  0.31631185  0.59229828    -0.21400
C303        C  0.80793508  0.43884424  0.58491969    -0.21400
C304        C  0.82815765  0.44907834  0.59386262    -0.21400
C305        C  0.78783959  0.32336930  0.56861875    -0.16700
C306        C  0.78805805  0.40160477  0.56931267    -0.16700
C307        C  0.85947543  0.43775631  0.60086511    -0.16700
C308        C  0.85970943  0.35977845  0.59983428    -0.16700
H309        H  0.76093142  0.32783211  0.54561137     0.16200
H310        H  0.76108114  0.37026955  0.54596910     0.16200
H311        H  0.90621918  0.40157966  0.60981798     0.16200
H312        H  0.90611262  0.44390846  0.61035668     0.16200
H313        H  0.79615877  0.28624559  0.58093483     0.14500
H314        H  0.83528232  0.30605867  0.59793374     0.14500
H315        H  0.79609125  0.44642897  0.58271044     0.14500
H316        H  0.83496376  0.46612081  0.59989854     0.14500
H317        H  0.80147170  0.36921129  0.58148387     0.27700
H318        H  0.83486124  0.38606496  0.59560628     0.27700
N319        N  0.66811816  0.00412483  0.66749116    -0.25700
N320        N  0.66463643  0.02322318  0.66597895    -0.33600
C321        C  0.67883589  0.04108487  0.67542585     0.02600
C322        C  0.69181311  0.03277401  0.68320744     0.08600
C323        C  0.68464205  0.00931894  0.67794614    -0.04500
H324        H  0.67962329  0.05877448  0.67653157     0.09300
H325        H  0.69091088  0.99693475  0.68144211     0.10500
Cu326      Cu  0.64092081  0.02415076  0.65100580     0.44200
Cu327      Cu  0.65018174  0.97208325  0.65512412     0.42000
Cu328      Cu  0.60847270  0.97087228  0.62769379     0.43900
N329        N  0.61742963  0.02199088  0.63491554    -0.33100
N330        N  0.60553285  0.00256967  0.62634699    -0.27400
C331        C  0.59242825  0.00738841  0.61695012    -0.03500
C332        C  0.59636038  0.03091493  0.61980225     0.08700
C333        C  0.61224025  0.03966386  0.63120908     0.02500
H334        H  0.58115538  0.99483405  0.60859790     0.10200
H335        H  0.61972949  0.05765306  0.63634771     0.09300
N336        N  0.61548169  0.94212032  0.63125836    -0.34600
N337        N  0.63054929  0.94257507  0.64119362    -0.26700
C338        C  0.63116265  0.92131062  0.64052716    -0.02000
C339        C  0.61576978  0.90690717  0.62969841     0.06600
C340        C  0.60613365  0.92054237  0.62401394     0.04700
H341        H  0.64218029  0.91682917  0.64734300     0.09800
H342        H  0.59345671  0.91531348  0.61520065     0.08700
N343        N  0.62928036  0.63016118  0.64136632    -0.25700
N344        N  0.61527285  0.61552722  0.63095300    -0.33600
C345        C  0.60697485  0.62795429  0.62331617     0.02600
C346        C  0.61619687  0.65140944  0.62918630     0.08600
C347        C  0.63023080  0.65225156  0.64059338    -0.04500
H348        H  0.59554920  0.62064086  0.61399311     0.09300
H349        H  0.64080737  0.66792095  0.64763420     0.10500
Cu350      Cu  0.60893817  0.57976340  0.62685539     0.44200
Cu351      Cu  0.64768367  0.62022722  0.65582685     0.42000
Cu352      Cu  0.64011763  0.55926123  0.65000418     0.43900
N353        N  0.60675964  0.54534744  0.62465648    -0.33100
N354        N  0.61841779  0.53802722  0.63323185    -0.27400
C355        C  0.61370378  0.51525658  0.62925341    -0.03500
C356        C  0.59835004  0.50789733  0.61763271     0.08700
C357        C  0.59424500  0.52731722  0.61495171     0.02500
H358        H  0.62086133  0.50482123  0.63448258     0.10200
H359        H  0.58298887  0.52826576  0.60662380     0.09300
N360        N  0.66141299  0.58311897  0.66610736    -0.34600
N361        N  0.66436484  0.60547527  0.66832375    -0.26700
C362        C  0.67971529  0.61620474  0.67940433    -0.02000
C363        C  0.68658929  0.59971675  0.68429270     0.06600
C364        C  0.67471201  0.57899673  0.67567253     0.04700
H365        H  0.68560008  0.63467329  0.68347889     0.09800
H366        H  0.67584659  0.56225275  0.67619219     0.08700
N367        N  0.60334800  0.73928769  0.60806774    -0.25700
N368        N  0.59133436  0.72298374  0.59785295    -0.33600
C369        C  0.59242517  0.70224747  0.60012451     0.02600
C370        C  0.60573490  0.70564714  0.61229164     0.08600
C371        C  0.61244695  0.72928017  0.61708880    -0.04500
H372        H  0.58379635  0.68575370  0.59350315     0.09300
H373        H  0.62267849  0.73831408  0.62656650     0.10500
Cu374      Cu  0.57328826  0.72878397  0.58126477     0.44200
Cu375      Cu  0.60530814  0.77368205  0.60976788     0.42000
Cu376      Cu  0.57259323  0.78562283  0.58206613     0.43900
N377        N  0.55787545  0.73929385  0.56531560    -0.33100
N378        N  0.55791706  0.76053705  0.56562459    -0.27400
C379        C  0.54710950  0.76247947  0.55389761    -0.03500
C380        C  0.53990853  0.74140963  0.54586358     0.08700
C381        C  0.54693210  0.72703994  0.55335310     0.02500
H382        H  0.54461328  0.77801929  0.55145729     0.10200
H383        H  0.54429892  0.70906744  0.55035958     0.09300
N384        N  0.58885189  0.80868471  0.59921241    -0.34600
N385        N  0.60116099  0.80484506  0.60923742    -0.26700
C386        C  0.60964733  0.82379998  0.61855250    -0.02000
C387        C  0.60217928  0.84006182  0.61409603     0.06600
C388        C  0.58909027  0.82999029  0.60186362     0.04700
H389        H  0.62047148  0.82561338  0.62781044     0.09800
H390        H  0.58054599  0.83766130  0.59527644     0.08700
O391        O  0.75775887  0.58737395  0.77076461    -0.71400
O392        O  0.80318208  0.58446645  0.74184422    -0.72400
O393        O  0.80257492  0.58573087  0.77155182    -0.61000
O394        O  0.75828686  0.58608250  0.74105361    -0.69400
O395        O  0.78109645  0.62783211  0.74051436    -0.68900
O396        O  0.82546921  0.62748217  0.77109601    -0.60200
O397        O  0.82605667  0.62620809  0.74132640    -0.72700
O398        O  0.78052237  0.62912517  0.77029491    -0.71500
Cu399      Cu  0.77965196  0.58446142  0.75632296     1.04600
Cu400      Cu  0.80409346  0.62914355  0.75578712     1.04300
C401        C  0.76202881  0.60865430  0.77507015     0.94800
C402        C  0.82173333  0.60487690  0.73705987     0.94000
C403        C  0.82093321  0.60650323  0.77609228     0.86100
C404        C  0.76275377  0.60699734  0.73600853     0.92400
O405        O  0.81139709  0.16418739  0.77031234    -0.71400
O406        O  0.76568503  0.11709233  0.74042148    -0.72400
O407        O  0.76499830  0.11752472  0.77021307    -0.61000
O408        O  0.81204280  0.16371065  0.74050662    -0.69400
O409        O  0.83288243  0.14359129  0.74093267    -0.68900
O410        O  0.78561402  0.09718530  0.77074489    -0.60200
O411        O  0.78632363  0.09677364  0.74081542    -0.72700
O412        O  0.83218932  0.14403232  0.77086240    -0.71500
Cu413      Cu  0.78781931  0.14132013  0.75534646     1.04600
Cu414      Cu  0.80999458  0.11966785  0.75585807     1.04300
C415        C  0.82882171  0.16140598  0.77534330     0.94800
C416        C  0.76894046  0.09971999  0.73585355     0.94000
C417        C  0.76801737  0.10025272  0.77520228     0.86100
C418        C  0.82968753  0.16080193  0.73599349     0.92400
O419        O  0.34547817  0.12757856  0.77144368    -0.71400
O420        O  0.34545036  0.17207084  0.74108131    -0.72400
O421        O  0.34465274  0.17272362  0.77077755    -0.61000
O422        O  0.34623284  0.12686312  0.74175047    -0.69400
O423        O  0.30440030  0.10458118  0.74138918    -0.68900
O424        O  0.30281737  0.15047367  0.77052574    -0.60200
O425        O  0.30360988  0.14987640  0.74076912    -0.72700
O426        O  0.30363688  0.10520401  0.77116358    -0.71500
Cu427      Cu  0.34691068  0.15057697  0.75627492     1.04600
Cu428      Cu  0.30212771  0.12673513  0.75594876     1.04300
C429        C  0.32461173  0.10949036  0.77607323     0.94800
C430        C  0.32454138  0.16796002  0.73618009     0.94000
C431        C  0.32352352  0.16878654  0.77520091     0.86100
C432        C  0.32558529  0.10859082  0.73700454     0.92400
N433        N  0.30020038  0.29983712  0.87108890    -0.25700
N434        N  0.31482953  0.31365238  0.88154449    -0.33600
C435        C  0.30232812  0.32168599  0.88933488     0.02600
C436        C  0.27879221  0.31247416  0.88351668     0.08600
C437        C  0.27800467  0.29872408  0.87198239    -0.04500
H438        H  0.30976569  0.33318945  0.89861764     0.09300
H439        H  0.26242075  0.28850062  0.86482976     0.10500
Cu440      Cu  0.35099286  0.32062394  0.88506903     0.44200
Cu441      Cu  0.31086099  0.28271016  0.85617168     0.42000
Cu442      Cu  0.37346061  0.29300226  0.86020918     0.43900
N443        N  0.38625857  0.32441696  0.88637340    -0.33100
N444        N  0.39438588  0.31430566  0.87720875    -0.27400
C445        C  0.41762662  0.31990177  0.88089076    -0.03500
C446        C  0.42439416  0.33417415  0.89292213     0.08700
C447        C  0.40417850  0.33673840  0.89615741     0.02500
H448        H  0.42869628  0.31391261  0.87524839     0.10200
H449        H  0.40254741  0.34670882  0.90496355     0.09300
N450        N  0.34902359  0.27155006  0.84428845    -0.34600
N451        N  0.32607780  0.26759842  0.84278639    -0.26700
C452        C  0.31497623  0.25231594  0.83173231    -0.02000
C453        C  0.33181517  0.24652740  0.82608482     0.06600
C454        C  0.35314827  0.25895942  0.83425894     0.04700
H455        H  0.29597581  0.24564959  0.82822226     0.09800
H456        H  0.37026258  0.25856562  0.83316343     0.08700
N457        N  0.92504116  0.26278437  0.84347225    -0.25700
N458        N  0.90629895  0.26687281  0.84487809    -0.33600
C459        C  0.88848230  0.25325194  0.83528265     0.02600
C460        C  0.89642645  0.23999363  0.82748536     0.08600
C461        C  0.91963383  0.24640745  0.83291352    -0.04500
H462        H  0.87100214  0.25293151  0.83414344     0.09300
H463        H  0.93163439  0.23960579  0.82951016     0.10500
Cu464      Cu  0.90566468  0.29034703  0.86002647     0.44200
Cu465      Cu  0.95676471  0.27959791  0.85627906     0.42000
Cu466      Cu  0.95803749  0.32013459  0.88434865     0.43900
N467        N  0.90783141  0.31310968  0.87644414    -0.33100
N468        N  0.92676186  0.32385960  0.88542203    -0.27400
C469        C  0.92181967  0.33655973  0.89501133    -0.03500
C470        C  0.89876421  0.33357979  0.89182954     0.08700
C471        C  0.89039095  0.31869090  0.88004839     0.02500
H472        H  0.93395481  0.34689726  0.90371010     0.10200
H473        H  0.87277846  0.31206895  0.87460320     0.09300
N474        N  0.98649410  0.31266509  0.88078763    -0.34600
N475        N  0.98604201  0.29799790  0.87062082    -0.26700
C476        C  0.00695752  0.29669252  0.87142773    -0.02000
C477        C  0.02111834  0.31119196  0.88259355     0.06600
C478        C  0.00769878  0.32105733  0.88831148     0.04700
H479        H  0.01132325  0.28572775  0.86450818     0.09800
H480        H  0.01276514  0.33315702  0.89737129     0.08700
N481        N  0.19111716  0.32672143  0.90370677    -0.25700
N482        N  0.20762907  0.33948770  0.91372966    -0.33600
C483        C  0.22851952  0.33856237  0.91157847     0.02600
C484        C  0.22503601  0.32458195  0.89969262     0.08600
C485        C  0.20118357  0.31731091  0.89493589    -0.04500
H486        H  0.24508722  0.34756962  0.91815763     0.09300
H487        H  0.19193181  0.30626170  0.88571448     0.10500
Cu488      Cu  0.20182985  0.35785248  0.93011758     0.44200
Cu489      Cu  0.15591349  0.32335164  0.90207014     0.42000
Cu490      Cu  0.14258219  0.35372818  0.93020784     0.43900
N491        N  0.19079902  0.37284996  0.94600627    -0.33100
N492        N  0.16863669  0.37099281  0.94600869    -0.27400
C493        C  0.16644313  0.38189947  0.95760544    -0.03500
C494        C  0.18829516  0.39103920  0.96523710     0.08700
C495        C  0.20340841  0.38507484  0.95765180     0.02500
H496        H  0.15016444  0.38307987  0.96024544     0.10200
H497        H  0.22207995  0.38922490  0.96038325     0.09300
N498        N  0.11876258  0.33632789  0.91349026    -0.34600
N499        N  0.12323404  0.32508406  0.90313293    -0.26700
C500        C  0.10404878  0.31631628  0.89391527    -0.02000
C501        C  0.08695378  0.32244390  0.89881354     0.06600
C502        C  0.09682049  0.33506697  0.91119070     0.04700
H503        H  0.10281494  0.30653281  0.88432086     0.09800
H504        H  0.08883044  0.34304262  0.91797492     0.08700
N505        N  0.56646942  0.13985445  0.93966383    -0.35100
N506        N  0.51716724  0.10798294  0.92685760    -0.55600
N507        N  0.53536762  0.07796351  0.91413988    -0.35000
N508        N  0.58365873  0.10795938  0.92827473    -0.55600
C509        C  0.55308820  0.14841638  0.94622909     0.28500
C510        C  0.58828194  0.14868141  0.94679667     0.28500
C511        C  0.51060881  0.06387141  0.91089067     0.28500
C512        C  0.54556810  0.06368050  0.91178219     0.28500
C513        C  0.51390240  0.12639619  0.93186873     0.37200
C514        C  0.49777699  0.09414021  0.91803037     0.37200
C515        C  0.60570035  0.12646817  0.93364817     0.37200
C516        C  0.58926512  0.09384455  0.92006834     0.37200
C517        C  0.56665541  0.16302403  0.95760026    -0.20300
C518        C  0.58885123  0.16319168  0.95795882    -0.20300
C519        C  0.50501050  0.04035235  0.90635177    -0.20300
C520        C  0.52706164  0.04022306  0.90692399    -0.20300
C521        C  0.49211136  0.12399232  0.92639208    -0.21400
C522        C  0.48190418  0.10357584  0.91761457    -0.21400
C523        C  0.62535916  0.12387691  0.92900650    -0.21400
C524        C  0.61494960  0.10319945  0.92041625    -0.21400
C525        C  0.52967251  0.14467755  0.94178881    -0.16700
C526        C  0.60822212  0.14504906  0.94314067    -0.16700
C527        C  0.57141004  0.07187724  0.91287350    -0.16700
C528        C  0.49340699  0.07227318  0.91098334    -0.16700
H529        H  0.56121328  0.17272102  0.96484403     0.16200
H530        H  0.60376733  0.17299571  0.96555254     0.16200
H531        H  0.48697800  0.02498491  0.90281350     0.16200
H532        H  0.52928705  0.02473633  0.90389544     0.16200
H533        H  0.48431454  0.13566439  0.92853346     0.14500
H534        H  0.46464903  0.09638190  0.91170331     0.14500
H535        H  0.64513549  0.13559901  0.93156419     0.14500
H536        H  0.62512231  0.09582059  0.91510315     0.14500
H537        H  0.56230848  0.13104399  0.92999403     0.27700
H538        H  0.54531855  0.09714054  0.91609731     0.27700
N539        N  0.66716432  0.17563297  0.96278070    -0.25700
N540        N  0.66994298  0.19475037  0.95526407    -0.33600
C541        C  0.64941099  0.18686403  0.94723163     0.02600
C542        C  0.63305877  0.16156448  0.94976096     0.08600
C543        C  0.64484256  0.15500778  0.95965871    -0.04500
H544        H  0.64676269  0.19856418  0.93992822     0.09300
H545        H  0.63771515  0.13664427  0.96425554     0.10500
Cu546      Cu  0.70214335  0.23026718  0.95560086     0.44200
Cu547      Cu  0.69385613  0.17856811  0.97695568     0.42000
Cu548      Cu  0.75341517  0.23793124  0.97731385     0.43900
N549        N  0.73769991  0.26242545  0.95579944    -0.33100
N550        N  0.75667623  0.26494417  0.96338080    -0.27400
C551        C  0.77744704  0.28725259  0.96045429    -0.03500
C552        C  0.77109609  0.29928993  0.95063187     0.08700
C553        C  0.74581215  0.28313180  0.94793310     0.02500
H554        H  0.79576998  0.29414317  0.96509118     0.10200
H555        H  0.73430526  0.28597925  0.94057462     0.09300
N556        N  0.74460239  0.20861347  0.99094347    -0.34600
N557        N  0.72288101  0.18692980  0.99082321    -0.26700
C558        C  0.72268631  0.17248771  0.00134921    -0.02000
C559        C  0.74533965  0.18577570  0.00833946     0.06600
C560        C  0.75879832  0.20856250  0.00154294     0.04700
H561        H  0.70698153  0.15399227  0.00391658     0.09800
H562        H  0.77724495  0.22419187  0.00428791     0.08700
N563        N  0.66855545  0.00564439  0.84422149    -0.25700
N564        N  0.66406546  0.02413374  0.84539098    -0.33600
C565        C  0.67730340  0.04159907  0.83557054     0.02600
C566        C  0.69070637  0.03367265  0.82789046     0.08600
C567        C  0.68480504  0.01086569  0.83361069    -0.04500
H568        H  0.67721357  0.05879750  0.83417430     0.09300
H569        H  0.69179324  0.99896430  0.83033837     0.10500
Cu570      Cu  0.64048928  0.02493824  0.86046636     0.44200
Cu571      Cu  0.65228169  0.97431313  0.85723559     0.42000
Cu572      Cu  0.61115708  0.97297926  0.88493230     0.43900
N573        N  0.61774822  0.02291368  0.87691707    -0.33100
N574        N  0.60706665  0.00404180  0.88591764    -0.27400
C575        C  0.59432296  0.00895077  0.89551070    -0.03500
C576        C  0.59721695  0.03194526  0.89233164     0.08700
C577        C  0.61210894  0.04030285  0.88052915     0.02500
H578        H  0.58404677  0.99685238  0.90423006     0.10200
H579        H  0.61869683  0.05787677  0.87507871     0.09300
N580        N  0.61896794  0.94468260  0.88163819    -0.34600
N581        N  0.63386426  0.94517412  0.87158727    -0.26700
C582        C  0.63514652  0.92428098  0.87244063    -0.02000
C583        C  0.62039297  0.91007906  0.88352440     0.06600
C584        C  0.61041177  0.92346480  0.88914522     0.04700
H585        H  0.64617446  0.91990353  0.86556990     0.09800
H586        H  0.59802374  0.91830482  0.89808860     0.08700
N587        N  0.62918795  0.63025436  0.87072466    -0.25700
N588        N  0.61533672  0.61559143  0.88116117    -0.33600
C589        C  0.60698343  0.62791369  0.88885142     0.02600
C590        C  0.61603943  0.65133559  0.88296259     0.08600
C591        C  0.63000537  0.65225698  0.87152032    -0.04500
H592        H  0.59559573  0.62053831  0.89818394     0.09300
H593        H  0.64039114  0.66790216  0.86443866     0.10500
Cu594      Cu  0.60921299  0.57989641  0.88495268     0.44200
Cu595      Cu  0.64726501  0.62040172  0.85604387     0.42000
Cu596      Cu  0.63839377  0.55886351  0.86020624     0.43900
N597        N  0.60673809  0.54531446  0.88631728    -0.33100
N598        N  0.61738105  0.53772903  0.87717414    -0.27400
C599        C  0.61246473  0.51475260  0.88082870    -0.03500
C600        C  0.59810108  0.50760680  0.89282640     0.08700
C601        C  0.59475327  0.52729636  0.89607431     0.02500
H602        H  0.61891600  0.50409933  0.87516588     0.10200
H603        H  0.58440838  0.52846890  0.90483900     0.09300
N604        N  0.65958612  0.58322269  0.84425846    -0.34600
N605        N  0.66309327  0.60593837  0.84270871    -0.26700
C606        C  0.67831139  0.61716703  0.83164450    -0.02000
C607        C  0.68451533  0.60061994  0.82604519     0.06600
C608        C  0.67239327  0.57934261  0.83425463     0.04700
H609        H  0.68462555  0.63603614  0.82808724     0.09800
H610        H  0.67313138  0.56243507  0.83319702     0.08700
N611        N  0.60480458  0.74025180  0.90390879    -0.25700
N612        N  0.59211401  0.72376713  0.91394779    -0.33600
C613        C  0.59253478  0.70270380  0.91159887     0.02600
C614        C  0.60606337  0.70601471  0.89955720     0.08600
C615        C  0.61364340  0.72996280  0.89490543    -0.04500
H616        H  0.58334462  0.68607381  0.91810609     0.09300
H617        H  0.62439159  0.73907615  0.88557481     0.10500
Cu618      Cu  0.57391790  0.72938827  0.93045461     0.44200
Cu619      Cu  0.60843485  0.77551125  0.90250390     0.42000
Cu620      Cu  0.57646050  0.78758882  0.93050637     0.43900
N621        N  0.55804811  0.73950743  0.94626801    -0.33100
N622        N  0.55922926  0.76131593  0.94626455    -0.27400
C623        C  0.54781099  0.76297462  0.95779859    -0.03500
C624        C  0.53903894  0.74113521  0.96538428     0.08700
C625        C  0.54577240  0.72659605  0.95783381     0.02500
H626        H  0.54607507  0.77890279  0.96044701     0.10200
H627        H  0.54213336  0.70812216  0.96054142     0.09300
N628        N  0.59428483  0.81177767  0.91392782    -0.34600
N629        N  0.60616777  0.80780673  0.90370817    -0.26700
C630        C  0.61513335  0.82718122  0.89462978    -0.02000
C631        C  0.60845638  0.84388082  0.89945394     0.06600
C632        C  0.59531682  0.83358925  0.91165389     0.04700
H633        H  0.62544071  0.82881374  0.88517780     0.09800
H634        H  0.58688882  0.84123631  0.91834976     0.08700
N635        N  0.79318739  0.36577397  0.94066151    -0.35100
N636        N  0.82435186  0.41455997  0.92740341    -0.55600
N637        N  0.85335708  0.39570662  0.91394768    -0.35000
N638        N  0.82412004  0.34797592  0.92857577    -0.55600
C639        C  0.78465801  0.37914591  0.94724377     0.28500
C640        C  0.78447188  0.34406819  0.94783178     0.28500
C641        C  0.86740204  0.42034094  0.91052821     0.28500
C642        C  0.86736673  0.38532989  0.91121495     0.28500
C643        C  0.80609045  0.41792211  0.93260099     0.37200
C644        C  0.83776205  0.43362400  0.91833898     0.37200
C645        C  0.80585062  0.32617593  0.93426924     0.37200
C646        C  0.83760347  0.34202138  0.92006056     0.37200
C647        C  0.77023163  0.36571312  0.95869520    -0.20300
C648        C  0.77012667  0.34358923  0.95907200    -0.20300
C649        C  0.89057491  0.42566213  0.90545413    -0.20300
C650        C  0.89055630  0.40357176  0.90589047    -0.20300
C651        C  0.80821903  0.43950097  0.92703692    -0.21400
C652        C  0.82828350  0.44945313  0.91799514    -0.21400
C653        C  0.80798954  0.30632073  0.92952809    -0.21400
C654        C  0.82812884  0.31636340  0.92053745    -0.21400
C655        C  0.78807546  0.40231202  0.94267322    -0.16700
C656        C  0.78779611  0.32402303  0.94405138    -0.16700
C657        C  0.85915436  0.35956357  0.91246773    -0.16700
C658        C  0.85919390  0.43765721  0.91091477    -0.16700
H659        H  0.76052221  0.37114474  0.96594188     0.16200
H660        H  0.76035162  0.32871428  0.96668114     0.16200
H661        H  0.90580381  0.44353747  0.90165442     0.16200
H662        H  0.90577332  0.40115547  0.90248819     0.16200
H663        H  0.79655148  0.44728048  0.92926045     0.14500
H664        H  0.83515124  0.46644930  0.91190613     0.14500
H665        H  0.79630150  0.28665031  0.93226430     0.14500
H666        H  0.83506080  0.30597139  0.91503326     0.14500
H667        H  0.80171408  0.36977138  0.93091803     0.27700
H668        H  0.83429807  0.38594582  0.91629333     0.27700
N669        N  0.66935055  0.43005454  0.95803062    -0.25700
N670        N  0.67232233  0.41447392  0.95001705    -0.33600
C671        C  0.65226811  0.40221226  0.94149874     0.02600
C672        C  0.63608909  0.41069067  0.94423949     0.08600
C673        C  0.64744736  0.42828722  0.95476379    -0.04500
H674        H  0.64957994  0.38807853  0.93395371     0.09300
H675        H  0.64003571  0.43856134  0.95990909     0.10500
Cu676      Cu  0.70371081  0.41097379  0.95098493     0.44200
Cu677      Cu  0.69443843  0.45192132  0.97359686     0.42000
Cu678      Cu  0.75179221  0.45064652  0.97632281     0.43900
N679        N  0.73842786  0.41390117  0.95257931    -0.33100
N680        N  0.75624443  0.42889265  0.96150207    -0.27400
C681        C  0.77673853  0.42724656  0.95934464    -0.03500
C682        C  0.77141463  0.41033546  0.94862093     0.08700
C683        C  0.74702209  0.40217150  0.94459562     0.02500
H684        H  0.79412755  0.43748063  0.96518144     0.10200
H685        H  0.73641116  0.38891397  0.93636373     0.09300
N686        N  0.74194335  0.46968209  0.99025844    -0.34600
N687        N  0.72100700  0.47021361  0.98919518    -0.26700
C688        C  0.71976623  0.48345259  0.99995005    -0.02000
C689        C  0.74091934  0.49159572  0.00810470     0.06600
C690        C  0.75459171  0.48257381  0.00173854     0.04700
H691        H  0.70439657  0.48652008  0.00180242     0.09800
H692        H  0.77218981  0.48484642  0.00527920     0.08700
N693        N  0.56843181  0.36398712  0.93528700    -0.35100
N694        N  0.51736057  0.34724531  0.92575209    -0.55600
N695        N  0.53527174  0.39708730  0.91431490    -0.35000
N696        N  0.58541495  0.41481008  0.92545534    -0.55600
C697        C  0.55536358  0.34135813  0.94171778     0.28500
C698        C  0.59121300  0.37703623  0.94159896     0.28500
C699        C  0.51024870  0.38638535  0.91209835     0.28500
C700        C  0.54618372  0.42205419  0.91196793     0.28500
C701        C  0.51375866  0.32488443  0.92998768     0.37200
C702        C  0.49652416  0.34213144  0.91850419     0.37200
C703        C  0.60782663  0.41821894  0.92948064     0.37200
C704        C  0.59057152  0.43536907  0.91795713     0.37200
C705        C  0.57019661  0.33986528  0.95204881    -0.20300
C706        C  0.59277015  0.36234627  0.95198185    -0.20300
C707        C  0.50519765  0.40479953  0.90821349    -0.20300
C708        C  0.52784755  0.42728717  0.90813941    -0.20300
C709        C  0.49038060  0.30550646  0.92559469    -0.21400
C710        C  0.47947066  0.31641430  0.91832544    -0.21400
C711        C  0.62730349  0.44117847  0.92467946    -0.21400
C712        C  0.61638594  0.45203510  0.91736850    -0.21400
C713        C  0.53067057  0.32171296  0.93834870    -0.16700
C714        C  0.61096092  0.40154002  0.93803291    -0.16700
C715        C  0.57235140  0.43991789  0.91220519    -0.16700
C716        C  0.49213695  0.36032130  0.91255196    -0.16700
H717        H  0.56523292  0.32426268  0.95901592     0.16200
H718        H  0.60848890  0.36732653  0.95887949     0.16200
H719        H  0.48711318  0.40226290  0.90550390     0.16200
H720        H  0.53054014  0.44537564  0.90534937     0.16200
H721        H  0.48200869  0.28557252  0.92745361     0.14500
H722        H  0.46101783  0.30652335  0.91352682     0.14500
H723        H  0.64729851  0.44929099  0.92629442     0.14500
H724        H  0.62633088  0.47020016  0.91227724     0.14500
H725        H  0.56306200  0.36923226  0.92626511     0.27700
H726        H  0.54468267  0.38755827  0.91565481     0.27700
N727        N  0.50187693  0.26310010  0.95811778    -0.25700
N728        N  0.51741427  0.26015513  0.95003380    -0.33600
C729        C  0.52990068  0.28037542  0.94166696     0.02600
C730        C  0.52159339  0.29663360  0.94456857     0.08600
C731        C  0.50388190  0.28514957  0.95504203    -0.04500
H732        H  0.54395157  0.28304539  0.93405175     0.09300
H733        H  0.49357132  0.29249502  0.96021998     0.10500
Cu734      Cu  0.52027010  0.22840350  0.95060593     0.44200
Cu735      Cu  0.47951972  0.23753014  0.97339017     0.42000
Cu736      Cu  0.47965618  0.17946478  0.97534852     0.43900
N737        N  0.51729372  0.19368089  0.95191348    -0.33100
N738        N  0.50203261  0.17557119  0.96061595    -0.27400
C739        C  0.50397729  0.15529161  0.95836720    -0.03500
C740        C  0.52136778  0.16106609  0.94782543     0.08700
C741        C  0.52947165  0.18549423  0.94399077     0.02500
H742        H  0.49362505  0.13773479  0.96402193     0.10200
H743        H  0.54300614  0.19641597  0.93592764     0.09300
N744        N  0.46073993  0.18928156  0.98948107    -0.34600
N745        N  0.46070023  0.21048171  0.98870179    -0.26700
C746        C  0.44764848  0.21171992  0.99957291    -0.02000
C747        C  0.43909205  0.19029796  0.00752156     0.06600
C748        C  0.44768889  0.17646160  0.00089662     0.04700
H749        H  0.44502729  0.22729175  0.00165941     0.09800
H750        H  0.44507524  0.15865526  0.00424347     0.08700
N751        N  0.98123222  0.63000335  0.86770197    -0.25700
N752        N  0.98275800  0.61493181  0.87686769    -0.33600
C753        C  0.00467601  0.62786690  0.88382972     0.02600
C754        C  0.01746584  0.65213403  0.87876455     0.08600
C755        C  0.00218587  0.65296883  0.86858638    -0.04500
H756        H  0.01062238  0.62024746  0.89210792     0.09300
H757        H  0.00580015  0.66909755  0.86243340     0.10500
Cu758      Cu  0.95474340  0.57774785  0.87991197     0.44200
Cu759      Cu  0.95044427  0.61878313  0.85469847     0.42000
Cu760      Cu  0.89907206  0.55410132  0.85840842     0.43900
N761        N  0.92385008  0.54159312  0.88150257    -0.33100
N762        N  0.90345943  0.53291925  0.87365386    -0.27400
C763        C  0.88653201  0.50926484  0.87763317    -0.03500
C764        C  0.89685841  0.50291027  0.88845222     0.08700
C765        C  0.92045924  0.52372113  0.89068636     0.02500
H766        H  0.86790236  0.49781591  0.87320275     0.10200
H767        H  0.93392762  0.52597541  0.89859546     0.09300
N768        N  0.89908442  0.57923136  0.84411402    -0.34600
N769        N  0.91779231  0.60283437  0.84278490    -0.26700
C770        C  0.91204774  0.61397686  0.83261665    -0.02000
C771        C  0.88867429  0.59652584  0.82735125     0.06600
C772        C  0.88094069  0.57473437  0.83482571     0.04700
H773        H  0.92405244  0.63328496  0.82928891     0.09800
H774        H  0.86349147  0.55690950  0.83359131     0.08700
N775        N  0.29976312  0.95010353  0.86819153    -0.25700
N776        N  0.31464733  0.94839312  0.87743589    -0.33600
C777        C  0.30147909  0.92634984  0.88423605     0.02600
C778        C  0.27728915  0.91371791  0.87899240     0.08600
C779        C  0.27672223  0.92920100  0.86887596    -0.04500
H780        H  0.30889897  0.92017039  0.89250520     0.09300
H781        H  0.26075083  0.92572208  0.86258942     0.10500
Cu782      Cu  0.35197358  0.97625530  0.88077403     0.44200
Cu783      Cu  0.31122741  0.98080945  0.85517828     0.42000
Cu784      Cu  0.37582755  0.03168601  0.85909724     0.43900
N785        N  0.38833242  0.00714423  0.88234368    -0.33100
N786        N  0.39701261  0.02739559  0.87440022    -0.27400
C787        C  0.42080036  0.04427449  0.87823915    -0.03500
C788        C  0.42729757  0.03411113  0.88907864     0.08700
C789        C  0.40637593  0.01061494  0.89146268     0.02500
H790        H  0.43228519  0.06275320  0.87366595     0.10200
H791        H  0.40420942  0.99724582  0.89939994     0.09300
N792        N  0.35109450  0.03178031  0.84453792    -0.34600
N793        N  0.32744867  0.01317935  0.84312649    -0.26700
C794        C  0.31651721  0.01890586  0.83282862    -0.02000
C795        C  0.33416351  0.04217204  0.82757255     0.06600
C796        C  0.35584844  0.04985882  0.83517234     0.04700
H797        H  0.29720689  0.00699698  0.82943716     0.09800
H798        H  0.37374655  0.06725239  0.83399764     0.08700
N799        N  0.18743075  0.81085643  0.89980945    -0.25700
N800        N  0.20229429  0.81736474  0.91089530    -0.33600
C801        C  0.22338150  0.83962758  0.90843488     0.02600
C802        C  0.22165737  0.84743365  0.89522642     0.08600
C803        C  0.19872052  0.82888507  0.88999640    -0.04500
H804        H  0.23884026  0.84933520  0.91572254     0.09300
H805        H  0.19083956  0.82843347  0.87983668     0.10500
Cu806      Cu  0.19404797  0.79589195  0.92888425     0.44200
Cu807      Cu  0.15272550  0.77759484  0.89839254     0.42000
Cu808      Cu  0.13585644  0.73656885  0.92856441     0.43900
N809        N  0.18262837  0.77027420  0.94516929    -0.33100
N810        N  0.16118608  0.74835821  0.94501139    -0.27400
C811        C  0.15964622  0.73546841  0.95663961    -0.03500
C812        C  0.18114199  0.75004356  0.96443213     0.08700
C813        C  0.19534262  0.77195599  0.95691396     0.02500
H814        H  0.14429892  0.71669448  0.95905893     0.10200
H815        H  0.21377158  0.78768257  0.95959259     0.09300
N816        N  0.11378066  0.72777905  0.91079431    -0.34600
N817        N  0.11976464  0.74264342  0.89975731    -0.26700
C818        C  0.10154551  0.73112004  0.89005099    -0.02000
C819        C  0.08342497  0.70801465  0.89530669     0.06600
C820        C  0.09167680  0.70644823  0.90842238     0.04700
H821        H  0.10159447  0.73893310  0.87993747     0.09800
H822        H  0.08239950  0.69093213  0.91569790     0.08700
N823        N  0.96667025  0.28390717  0.37121008    -0.25700
N824        N  0.96598652  0.29833184  0.38114669    -0.33600
C825        C  0.94477584  0.28480569  0.38865603     0.02600
C826        C  0.93159117  0.26083447  0.38316898     0.08600
C827        C  0.94589060  0.26080088  0.37213945    -0.04500
H828        H  0.93939251  0.29192391  0.39745356     0.09300
H829        H  0.94157905  0.24521062  0.36530666     0.10500
Cu830      Cu  0.99378111  0.33579536  0.38412696     0.44200
Cu831      Cu  0.99585713  0.29637713  0.35688134     0.42000
Cu832      Cu  0.04557404  0.36222301  0.35969823     0.43900
N833        N  0.02348352  0.37289864  0.38494285    -0.33100
N834        N  0.04238382  0.38265629  0.37593045    -0.27400
C835        C  0.05855912  0.40687113  0.37933018    -0.03500
C836        C  0.04932299  0.41250860  0.39099808     0.08700
C837        C  0.02713614  0.39062563  0.39432134     0.02500
H838        H  0.07588007  0.41931865  0.37381609     0.10200
H839        H  0.01468459  0.38769730  0.40297376     0.09300
N840        N  0.04520089  0.33754251  0.34489033    -0.34600
N841        N  0.02719167  0.31357051  0.34391947    -0.26700
C842        C  0.03282733  0.30281632  0.33347650    -0.02000
C843        C  0.05538523  0.32090277  0.32764514     0.06600
C844        C  0.06275539  0.34266011  0.33507752     0.04700
H845        H  0.02139342  0.28328533  0.33042133     0.09800
H846        H  0.07967699  0.36082897  0.33354209     0.08700
N847        N  0.64789218  0.96419207  0.37127650    -0.25700
N848        N  0.63358282  0.96492470  0.38128808    -0.33600
C849        C  0.64715851  0.98624809  0.38867276     0.02600
C850        C  0.67104309  0.99946430  0.38304350     0.08600
C851        C  0.67097898  0.98506496  0.37204791    -0.04500
H852        H  0.64013898  0.99167162  0.39750117     0.09300
H853        H  0.68650044  0.98935343  0.36514393     0.10500
Cu854      Cu  0.59622756  0.93708960  0.38465312     0.44200
Cu855      Cu  0.63546023  0.93480539  0.35706992     0.42000
Cu856      Cu  0.57008826  0.88526227  0.36027934     0.43900
N857        N  0.55922144  0.90715638  0.38551485    -0.33100
N858        N  0.54966057  0.88834818  0.37646479    -0.27400
C859        C  0.52544718  0.87199913  0.37977093    -0.03500
C860        C  0.51957674  0.88099182  0.39142552     0.08700
C861        C  0.54131705  0.90324319  0.39485275     0.02500
H862        H  0.51314940  0.85474569  0.37417855     0.10200
H863        H  0.54400269  0.91558557  0.40351010     0.09300
N864        N  0.59442290  0.88509415  0.34550898    -0.34600
N865        N  0.61836756  0.90311965  0.34435802    -0.26700
C866        C  0.62898671  0.89720901  0.33396076    -0.02000
C867        C  0.61081888  0.87444804  0.32836874     0.06600
C868        C  0.58915747  0.86725079  0.33588388     0.04700
H869        H  0.64845598  0.90862646  0.33074230     0.09800
H870        H  0.57094077  0.85030638  0.33450514     0.08700
N871        N  0.83330559  0.18724934  0.41433616    -0.25700
N872        N  0.82711087  0.17230771  0.40331784    -0.33600
C873        C  0.84589769  0.18308613  0.39387315     0.02600
C874        C  0.86464431  0.20575341  0.39928644     0.08600
C875        C  0.85612837  0.20785113  0.41221921    -0.04500
H876        H  0.84583857  0.17504523  0.38383479     0.09300
H877        H  0.86571460  0.22325761  0.41953706     0.10500
Cu878      Cu  0.79343377  0.13790907  0.40172411     0.44200
Cu879      Cu  0.81064236  0.17947624  0.43177514     0.42000
Cu880      Cu  0.75184810  0.12020764  0.43176927     0.43900
N881        N  0.75908742  0.10415354  0.40321729    -0.33100
N882        N  0.74406189  0.09780120  0.41421666    -0.27400
C883        C  0.72351320  0.07497253  0.41203217    -0.03500
C884        C  0.72576702  0.06660218  0.39908538     0.08700
C885        C  0.74845196  0.08545260  0.39373180     0.02500
H886        H  0.70808143  0.06524296  0.41933366     0.10200
H887        H  0.75662700  0.08561649  0.38371692     0.09300
N888        N  0.76317209  0.14602189  0.44793990    -0.34600
N889        N  0.78471578  0.16785724  0.44791147    -0.26700
C890        C  0.78606481  0.18071783  0.45951473    -0.02000
C891        C  0.76435926  0.16618805  0.46714731     0.06600
C892        C  0.75022616  0.14435870  0.45957247     0.04700
H893        H  0.80144296  0.19942386  0.46203174     0.09800
H894        H  0.73169515  0.12868843  0.46213670     0.08700
N895        N  0.31382501  0.28634327  0.37065214    -0.25700
N896        N  0.32807109  0.30150780  0.38083503    -0.33600
C897        C  0.33688448  0.28962075  0.38855718     0.02600
C898        C  0.32775210  0.26595653  0.38297587     0.08600
C899        C  0.31322134  0.26444323  0.37165990    -0.04500
H900        H  0.34881251  0.29753720  0.39765924     0.09300
H901        H  0.30276758  0.24853936  0.36474924     0.10500
Cu902      Cu  0.33434714  0.33745391  0.38429273     0.44200
Cu903      Cu  0.29520249  0.29568478  0.35599554     0.42000
Cu904      Cu  0.30342400  0.35743751  0.36063790     0.43900
N905        N  0.33642306  0.37190261  0.38612552    -0.33100
N906        N  0.32486048  0.37904486  0.37736380    -0.27400
C907        C  0.32946048  0.40186186  0.38115441    -0.03500
C908        C  0.34465183  0.40944916  0.39284556     0.08700
C909        C  0.34876884  0.39010570  0.39576415     0.02500
H910        H  0.32237019  0.41219180  0.37573957     0.10200
H911        H  0.35995031  0.38933920  0.40419709     0.09300
N912        N  0.28196480  0.33274282  0.34488684    -0.34600
N913        N  0.27868721  0.31014572  0.34312021    -0.26700
C914        C  0.26341706  0.29907867  0.33204436    -0.02000
C915        C  0.25698736  0.31562411  0.32668943     0.06600
C916        C  0.26898617  0.33668540  0.33503522     0.04700
H917        H  0.25743979  0.28043211  0.32822895     0.09800
H918        H  0.26827635  0.35362308  0.33408087     0.08700
N919        N  0.27799696  0.91246283  0.34323530    -0.25700
N920        N  0.28138834  0.89332475  0.34490516    -0.33600
C921        C  0.26787650  0.87568109  0.33521664     0.02600
C922        C  0.25541618  0.88412932  0.32709059     0.08600
C923        C  0.26217757  0.90745708  0.33241465    -0.04500
H924        H  0.26707096  0.85796269  0.33424211     0.09300
H925        H  0.25598219  0.91981607  0.32876420     0.10500
Cu926      Cu  0.30385033  0.89180659  0.36043998     0.44200
Cu927      Cu  0.29501759  0.94437664  0.35591009     0.42000
Cu928      Cu  0.33465118  0.94509263  0.38407927     0.43900
N929        N  0.32675237  0.89425635  0.37690059    -0.33100
N930        N  0.33793446  0.91360451  0.38557167    -0.27400
C931        C  0.35130096  0.90926670  0.39502074    -0.03500
C932        C  0.34834435  0.88617738  0.39208158     0.08700
C933        C  0.33269677  0.87711875  0.38059056     0.02500
H934        H  0.36229601  0.92196484  0.40338630     0.10200
H935        H  0.32605910  0.85938658  0.37530810     0.09300
N936        N  0.32876942  0.97448202  0.38007087    -0.34600
N937        N  0.31433898  0.97425746  0.36982277    -0.26700
C938        C  0.31426813  0.99585716  0.37018677    -0.02000
C939        C  0.32937282  0.01025464  0.38114407     0.06600
C940        C  0.33824749  0.99620584  0.38720467     0.04700
H941        H  0.30375240  0.00055783  0.36310672     0.09800
H942        H  0.35042893  0.00122739  0.39623423     0.08700
N943        N  0.34363672  0.11234162  0.40194291    -0.25700
N944        N  0.35387750  0.10721956  0.41257674    -0.33600
C945        C  0.35329662  0.08570532  0.40997104     0.02600
C946        C  0.34219008  0.07682141  0.39711083     0.08600
C947        C  0.33622444  0.09404708  0.39226048    -0.04500
H948        H  0.36044802  0.07718093  0.41695518     0.09300
H949        H  0.32722361  0.09337457  0.38245190     0.10500
Cu950      Cu  0.36870511  0.12951885  0.43020733     0.44200
Cu951      Cu  0.34099357  0.14448962  0.40118055     0.42000
Cu952      Cu  0.37094778  0.18804401  0.43060080     0.43900
N953        N  0.38402438  0.15482602  0.44660064    -0.33100
N954        N  0.38509276  0.17659298  0.44675574    -0.27400
C955        C  0.39652275  0.18892936  0.45861862    -0.03500
C956        C  0.40284005  0.17410375  0.46620660     0.08700
C957        C  0.39470332  0.15266933  0.45832945     0.02500
H958        H  0.40010983  0.20734110  0.46143492     0.10200
H959        H  0.39661018  0.13679369  0.46084286     0.09300
N960        N  0.35459762  0.19491845  0.41356417    -0.34600
N961        N  0.34341085  0.17918709  0.40300164    -0.26700
C962        C  0.33481576  0.18962811  0.39393871    -0.02000
C963        C  0.34097614  0.21292240  0.39907373     0.06600
C964        C  0.35346855  0.21568494  0.41147905     0.04700
H965        H  0.32496640  0.18096398  0.38431002     0.09800
H966        H  0.36120974  0.23162539  0.41849812     0.08700
N967        N  0.37769985  0.77941482  0.44115692    -0.35100
N968        N  0.42696624  0.80902263  0.42797613    -0.55600
N969        N  0.41021546  0.83964166  0.41429276    -0.35000
N970        N  0.36200846  0.81197324  0.42893778    -0.55600
C971        C  0.39018587  0.76990393  0.44776318     0.28500
C972        C  0.35581342  0.77120912  0.44809521     0.28500
C973        C  0.43495440  0.85280805  0.41088604     0.28500
C974        C  0.40065176  0.85430668  0.41133824     0.28500
C975        C  0.42960655  0.79052855  0.43349270     0.37200
C976        C  0.44671581  0.82224561  0.41926944     0.37200
C977        C  0.33976843  0.79435268  0.43458401     0.37200
C978        C  0.35699903  0.82624805  0.42048427     0.37200
C979        C  0.37597502  0.75533952  0.45899756    -0.20300
C980        C  0.35428343  0.75614269  0.45919806    -0.20300
C981        C  0.44111717  0.87603529  0.40552387    -0.20300
C982        C  0.41948658  0.87697482  0.40580257    -0.20300
C983        C  0.45136037  0.79226503  0.42844454    -0.21400
C984        C  0.46220263  0.81234940  0.41944652    -0.21400
C985        C  0.32065859  0.79782093  0.42995914    -0.21400
C986        C  0.33155875  0.81801939  0.42104206    -0.21400
C987        C  0.41328244  0.77270188  0.44345694    -0.16700
C988        C  0.33648678  0.77560784  0.44418011    -0.16700
C989        C  0.37512593  0.84723216  0.41270891    -0.16700
C990        C  0.45176413  0.84394250  0.41176325    -0.16700
H991        H  0.38060378  0.74494701  0.46621464     0.16200
H992        H  0.33900298  0.74650329  0.46660258     0.16200
H993        H  0.45927578  0.89072777  0.40169690     0.16200
H994        H  0.41778991  0.89252670  0.40223130     0.16200
H995        H  0.45874639  0.78038917  0.43102119     0.14500
H996        H  0.47959626  0.81899106  0.41375842     0.14500
H997        H  0.30090628  0.78693747  0.43271223     0.14500
H998        H  0.32182945  0.82574437  0.41559142     0.14500
H999        H  0.38235658  0.78833140  0.43152920     0.27700
H1000       H  0.39984455  0.82075418  0.41692190     0.27700
N1001       N  0.44135882  0.65402613  0.45805457    -0.25700
N1002       N  0.42627832  0.65750592  0.44987255    -0.33600
C1003       C  0.41438666  0.63793583  0.44101994     0.02600
C1004       C  0.42262803  0.62155559  0.44367843     0.08600
C1005       C  0.43964273  0.63225935  0.45454340    -0.04500
H1006       H  0.40059248  0.63567047  0.43333129     0.09300
H1007       H  0.44948904  0.62445076  0.45976793     0.10500
Cu1008     Cu  0.42281574  0.68884782  0.45109133     0.44200
Cu1009     Cu  0.46256437  0.67842143  0.47409256     0.42000
Cu1010     Cu  0.46238110  0.73647373  0.47655350     0.43900
N1011       N  0.42497014  0.72308631  0.45314051    -0.33100
N1012       N  0.43981933  0.74072383  0.46217664    -0.27400
C1013       C  0.43771816  0.76098812  0.46030581    -0.03500
C1014       C  0.42064592  0.75569498  0.44965526     0.08700
C1015       C  0.41293567  0.73158754  0.44534017     0.02500
H1016       H  0.44802253  0.77833513  0.46615136     0.10200
H1017       H  0.40000148  0.72122207  0.43693185     0.09300
N1018       N  0.48135825  0.72644935  0.49045608    -0.34600
N1019       N  0.48123167  0.70516687  0.48962144    -0.26700
C1020       C  0.49415267  0.70375041  0.50051292    -0.02000
C1021       C  0.50280491  0.72515422  0.50850093     0.06600
C1022       C  0.49441200  0.73915881  0.50188775     0.04700
H1023       H  0.49661241  0.68807475  0.50259096     0.09800
H1024       H  0.49707300  0.75696125  0.50528211     0.08700
N1025       N  0.15130803  0.55338349  0.44148676    -0.35100
N1026       N  0.12053253  0.50380306  0.42865126    -0.55600
N1027       N  0.09064255  0.52119973  0.41487414    -0.35000
N1028       N  0.11940545  0.56972258  0.42915847    -0.55600
C1029       C  0.16052317  0.54068882  0.44814835     0.28500
C1030       C  0.16017262  0.57554332  0.44822380     0.28500
C1031       C  0.07714562  0.49651372  0.41143617     0.28500
C1032       C  0.07631081  0.53112760  0.41188697     0.28500
C1033       C  0.13882911  0.50086267  0.43422598     0.37200
C1034       C  0.10710316  0.48407532  0.41996133     0.37200
C1035       C  0.13742716  0.59193674  0.43461811     0.37200
C1036       C  0.10524394  0.57485606  0.42067835     0.37200
C1037       C  0.17558553  0.55504592  0.45921206    -0.20300
C1038       C  0.17537859  0.57703235  0.45925243    -0.20300
C1039       C  0.05400945  0.49072692  0.40606502    -0.20300
C1040       C  0.05346857  0.51254272  0.40636160    -0.20300
C1041       C  0.13666394  0.47888351  0.42928877    -0.21400
C1042       C  0.11659606  0.46826322  0.42025952    -0.21400
C1043       C  0.13436488  0.61119151  0.42982580    -0.21400
C1044       C  0.11398513  0.60038571  0.42100740    -0.21400
C1045       C  0.15705854  0.51725836  0.44401997    -0.16700
C1046       C  0.15613710  0.59506043  0.44422011    -0.16700
C1047       C  0.08391746  0.55678360  0.41308806    -0.16700
C1048       C  0.08569897  0.47946119  0.41225242    -0.16700
H1049       H  0.18591476  0.55031114  0.46642155     0.16200
H1050       H  0.18549464  0.59246663  0.46650248     0.16200
H1051       H  0.03913786  0.47270570  0.40220499     0.16200
H1052       H  0.03810501  0.51454947  0.40274588     0.16200
H1053       H  0.14832805  0.47126341  0.43190484     0.14500
H1054       H  0.10974442  0.45083505  0.41460016     0.14500
H1055       H  0.14562961  0.63097259  0.43240507     0.14500
H1056       H  0.10646950  0.61022862  0.41547604     0.14500
H1057       H  0.14209464  0.54855436  0.43194164     0.27700
H1058       H  0.10958367  0.53132242  0.41746685     0.27700
N1059       N  0.27761852  0.74396721  0.46385957    -0.25700
N1060       N  0.27298530  0.72674400  0.45428542    -0.33600
C1061       C  0.29313657  0.73541386  0.44584721     0.02600
C1062       C  0.31119424  0.75920707  0.45030719     0.08600
C1063       C  0.30080810  0.76411276  0.46172861    -0.04500
H1064       H  0.29456763  0.72514471  0.43713532     0.09300
H1065       H  0.30953218  0.78092349  0.46809404     0.10500
Cu1066     Cu  0.23959914  0.69207664  0.45318379     0.44200
Cu1067     Cu  0.25237145  0.73888771  0.47956587     0.42000
Cu1068     Cu  0.19232142  0.67950965  0.47919588     0.43900
N1069       N  0.20501524  0.65858356  0.45428246    -0.33100
N1070       N  0.18758010  0.65407285  0.46370743    -0.27400
C1071       C  0.16748878  0.63085624  0.46160889    -0.03500
C1072       C  0.17264887  0.62029540  0.45037490     0.08700
C1073       C  0.19653876  0.63831204  0.44597605     0.02500
H1074       H  0.15050000  0.62225808  0.46784583     0.10200
H1075       H  0.20695669  0.63681582  0.43735936     0.09300
N1076       N  0.20226328  0.70739376  0.49407281    -0.34600
N1077       N  0.22414595  0.72892294  0.49425462    -0.26700
C1078       C  0.22471979  0.74257085  0.50531352    -0.02000
C1079       C  0.20214594  0.72895533  0.51233787     0.06600
C1080       C  0.18832991  0.70679009  0.50500102     0.04700
H1081       H  0.24042162  0.76097858  0.50802901     0.09800
H1082       H  0.16960933  0.69132211  0.50743069     0.08700
N1083       N  0.37562805  0.55419720  0.43462919    -0.35100
N1084       N  0.42608778  0.57112620  0.42426237    -0.55600
N1085       N  0.40802172  0.52117145  0.41292367    -0.35000
N1086       N  0.35834935  0.50346519  0.42460965    -0.55600
C1087       C  0.38905809  0.57667929  0.44117275     0.28500
C1088       C  0.35330600  0.54095030  0.44137495     0.28500
C1089       C  0.43310428  0.53186912  0.41089041     0.28500
C1090       C  0.39723723  0.49608213  0.41102768     0.28500
C1091       C  0.42954153  0.59351494  0.42830635     0.37200
C1092       C  0.44646817  0.57625230  0.41656858     0.37200
C1093       C  0.33606116  0.50015353  0.42882224     0.37200
C1094       C  0.35296776  0.48292103  0.41702545     0.37200
C1095       C  0.37496808  0.57783893  0.45206442    -0.20300
C1096       C  0.35243039  0.55531244  0.45219373    -0.20300
C1097       C  0.43831032  0.51334459  0.40755377    -0.20900
C1098       C  0.41569806  0.49078534  0.40763491    -0.20300
C1099       C  0.45229074  0.61296925  0.42325336    -0.21400
C1100       C  0.46301843  0.60204238  0.41580718    -0.21400
C1101       C  0.31641998  0.47731864  0.42399912    -0.21400
C1102       C  0.32711999  0.46640517  0.41651059    -0.21400
C1103       C  0.41329475  0.59655629  0.43729677    -0.16700
C1104       C  0.33328662  0.51666316  0.43772533    -0.16700
C1105       C  0.37107691  0.47812288  0.41135695    -0.16700
C1106       C  0.45111452  0.55798903  0.41101883    -0.16700
H1107       H  0.38036287  0.59329464  0.45921946     0.16200
H1108       H  0.33715035  0.55010763  0.45946681     0.16200
H1109       H  0.45647938  0.51584563  0.40512023     0.16200
H1110       H  0.41311966  0.47258652  0.40528053     0.16200
H1111       H  0.46042319  0.63293269  0.42488289     0.14500
H1112       H  0.48108567  0.61195213  0.41058357     0.14500
H1113       H  0.29647999  0.46926086  0.42579792     0.14500
H1114       H  0.31702890  0.44824413  0.41142271     0.14500
H1115       H  0.38034290  0.54922394  0.42526500     0.27700
H1116       H  0.39851746  0.53071224  0.41387331     0.27700
N1117       N  0.27612850  0.48959470  0.45877045    -0.25700
N1118       N  0.27260982  0.50448140  0.45046114    -0.33600
C1119       C  0.29206895  0.51598787  0.44149116     0.02600
C1120       C  0.30838240  0.50765934  0.44419944     0.08600
C1121       C  0.29777628  0.49102035  0.45522165    -0.04500
H1122       H  0.29429907  0.52956452  0.43367803     0.09300
H1123       H  0.30558069  0.48124720  0.46052800     0.10500
Cu1124     Cu  0.24123620  0.50800901  0.45162762     0.44200
Cu1125     Cu  0.25200316  0.46909150  0.47503564     0.42000
Cu1126     Cu  0.19375684  0.46895729  0.47736790     0.43900
N1127       N  0.20676388  0.50554483  0.45359664    -0.33100
N1128       N  0.18918517  0.49083808  0.46270522    -0.27400
C1129       C  0.16883846  0.49284410  0.46083123    -0.03500
C1130       C  0.17402250  0.50972787  0.45011002     0.08700
C1131       C  0.19813863  0.51740600  0.44574922     0.02500
H1132       H  0.15157492  0.48272751  0.46678590     0.10200
H1133       H  0.20847680  0.53030739  0.43732817     0.09300
N1134       N  0.20418219  0.45076827  0.49155369    -0.34600
N1135       N  0.22556087  0.45101812  0.49076734    -0.26700
C1136       C  0.22711265  0.43836634  0.50174485    -0.02000
C1137       C  0.20568377  0.42975901  0.50973090     0.06600
C1138       C  0.19153516  0.43790410  0.50303850     0.04700
H1139       H  0.24280941  0.43590722  0.50382421     0.09800
H1140       H  0.17359390  0.43505465  0.50635834     0.08700
N1141       N  0.64322438  0.61580614  0.37040704    -0.25700
N1142       N  0.62803862  0.60127854  0.38051012    -0.33600
C1143       C  0.63999503  0.59236841  0.38809507     0.02600
C1144       C  0.66373126  0.60172797  0.38251191     0.08600
C1145       C  0.66521050  0.61649576  0.37133603    -0.04500
H1146       H  0.63209829  0.58026612  0.39712893     0.09300
H1147       H  0.68116470  0.62719759  0.36448021     0.10500
Cu1148     Cu  0.59199166  0.59478672  0.38406976     0.44200
Cu1149     Cu  0.63379235  0.63459505  0.35589067     0.42000
Cu1150     Cu  0.57209005  0.62611905  0.36047586     0.43900
N1151       N  0.55748222  0.59268655  0.38582070    -0.33100
N1152       N  0.55046076  0.60447122  0.37714881    -0.27400
C1153       C  0.52755278  0.59976633  0.38088895    -0.03500
C1154       C  0.51977375  0.58426147  0.39243784     0.08700
C1155       C  0.53909387  0.58007324  0.39533750     0.02500
H1156       H  0.51728534  0.60698640  0.37552658     0.10200
H1157       H  0.53972913  0.56868105  0.40368090     0.09300
N1158       N  0.59635257  0.64705924  0.34443743    -0.34600
N1159       N  0.61906032  0.65051145  0.34272156    -0.26700
C1160       C  0.62999989  0.66553429  0.33154527    -0.02000
C1161       C  0.61325104  0.67161197  0.32605394     0.06600
C1162       C  0.59218784  0.65964639  0.33443807     0.04700
H1163       H  0.64877707  0.67174130  0.32781271     0.09800
H1164       H  0.57519630  0.66030312  0.33348430     0.08700
N1165       N  0.01915895  0.65431667  0.34366681    -0.25700
N1166       N  0.03837428  0.65102281  0.34537888    -0.33600
C1167       C  0.05617642  0.66477277  0.33580503     0.02600
C1168       C  0.04772580  0.67726468  0.32771503     0.08600
C1169       C  0.02424793  0.67028169  0.33293292    -0.04500
H1170       H  0.07394020  0.66561449  0.33483976     0.09300
H1171       H  0.01179393  0.67633894  0.32923288     0.10500
Cu1172     Cu  0.03962265  0.62809287  0.36068175     0.44200
Cu1173     Cu  0.98693549  0.63682503  0.35605831     0.42000
Cu1174     Cu  0.98591535  0.59655566  0.38390645     0.43900
N1175       N  0.03688142  0.60462811  0.37686206    -0.33100
N1176       N  0.01736053  0.59320745  0.38541764    -0.27400
C1177       C  0.02165235  0.57980890  0.39485039    -0.03500
C1178       C  0.04490753  0.58301141  0.39202191     0.08700
C1179       C  0.05409510  0.59879806  0.38060369     0.02500
H1180       H  0.00889214  0.56877488  0.40318860     0.10200
H1181       H  0.07204651  0.60576701  0.37547710     0.09300
N1182       N  0.95646448  0.60231059  0.37984430    -0.34600
N1183       N  0.95677428  0.61691042  0.36968713    -0.26700
C1184       C  0.93510554  0.61689009  0.37001838    -0.02000
C1185       C  0.92059061  0.60156787  0.38086819     0.06600
C1186       C  0.93461956  0.59264278  0.38689960     0.04700
H1187       H  0.93049803  0.62759700  0.36303929     0.09800
H1188       H  0.92955567  0.58039131  0.39589156     0.08700
N1189       N  0.75128371  0.58724555  0.40273213    -0.25700
N1190       N  0.73575548  0.57645451  0.41343127    -0.33600
C1191       C  0.71488942  0.57746221  0.41133357     0.02600
C1192       C  0.71735078  0.58940101  0.39876580     0.08600
C1193       C  0.74058334  0.59539225  0.39355847    -0.04500
H1194       H  0.69904540  0.56993588  0.41843058     0.09300
H1195       H  0.74902815  0.60481236  0.38379995     0.10500
Cu1196     Cu  0.74282691  0.56042322  0.43057123     0.44200
Cu1197     Cu  0.78613462  0.58989372  0.40084446     0.42000
Cu1198     Cu  0.80157078  0.56303195  0.42996738     0.43900
N1199       N  0.75447853  0.54619019  0.44660428    -0.33100
N1200       N  0.77635968  0.54743615  0.44634986    -0.27400
C1201       C  0.77869246  0.53666323  0.45797735    -0.03500
C1202       C  0.75724385  0.52826169  0.46590203     0.08700
C1203       C  0.74222401  0.53451798  0.45844312     0.02500
H1204       H  0.79468964  0.53485798  0.46037974     0.10200
H1205       H  0.72373395  0.53071353  0.46132813     0.09300
N1206       N  0.82393100  0.57789505  0.41240379    -0.34600
N1207       N  0.81865836  0.58784699  0.40169438    -0.26700
C1208       C  0.83698649  0.59522597  0.39201981    -0.02000
C1209       C  0.85435887  0.58951227  0.39696756     0.06600
C1210       C  0.84555420  0.57861169  0.40986709     0.04700
H1211       H  0.83752383  0.60392376  0.38212832     0.09800
H1212       H  0.85413567  0.57158098  0.41689563     0.08700
O1213       O  0.14129921  0.33443242  0.24121159    -0.71400
O1214       O  0.18649677  0.33260196  0.27067134    -0.72400
O1215       O  0.18635853  0.33316719  0.24092853    -0.61000
O1216       O  0.14135584  0.33374535  0.27099946    -0.69400
O1217       O  0.11877609  0.29197910  0.27075162    -0.68900
O1218       O  0.16373082  0.29140130  0.24069597    -0.60200
O1219       O  0.16392545  0.29083275  0.27041495    -0.72700
O1220       O  0.11867726  0.29266999  0.24093558    -0.71500
Cu1221     Cu  0.16465556  0.33495986  0.25596924     1.04600
Cu1222     Cu  0.14047250  0.29025658  0.25569663     1.04300
C1223       C  0.12303583  0.31386049  0.23639351     0.94800
C1224       C  0.18231120  0.31143067  0.27512458     0.94000
C1225       C  0.18204341  0.31215702  0.23610417     0.86100
C1226       C  0.12309147  0.31295933  0.27560912     0.92400
O1227       O  0.59788557  0.78985055  0.27099661    -0.71400
O1228       O  0.59814968  0.74488456  0.24086906    -0.72400
O1229       O  0.59852684  0.74455151  0.27063052    -0.61000
O1230       O  0.59748698  0.79012691  0.24118143    -0.69400
O1231       O  0.63932342  0.81231654  0.24097996    -0.68900
O1232       O  0.64036302  0.76673508  0.27050074    -0.60200
O1233       O  0.63998394  0.76702859  0.24072010    -0.72700
O1234       O  0.63972079  0.81209766  0.27085165    -0.71500
Cu1235     Cu  0.59654809  0.76660781  0.25593447     1.04600
Cu1236     Cu  0.64132373  0.79035351  0.25576613     1.04300
C1237       C  0.61873207  0.80788185  0.27570303     0.94800
C1238       C  0.61911069  0.74894719  0.23606287     0.94000
C1239       C  0.61960112  0.74847428  0.27514970     0.86100
C1240       C  0.61821786  0.80814711  0.23635196     0.92400
N1241       N  0.96443247  0.28507166  0.14213452    -0.25700
N1242       N  0.96392970  0.29941479  0.13208236    -0.33600
C1243       C  0.94297415  0.28582238  0.12439515     0.02600
C1244       C  0.92972771  0.26187682  0.12988408     0.08600
C1245       C  0.94373443  0.26192203  0.14110000    -0.04500
H1246       H  0.93787173  0.29285570  0.11543679     0.09300
H1247       H  0.93935018  0.24631282  0.14793430     0.10500
Cu1248     Cu  0.99168387  0.33673721  0.12898962     0.44200
Cu1249     Cu  0.99360203  0.29756776  0.15653923     0.42000
Cu1250     Cu  0.04392607  0.36315114  0.15287285     0.43900
N1251       N  0.02154313  0.37357775  0.12773299    -0.33100
N1252       N  0.04069883  0.38340305  0.13656971    -0.27400
C1253       C  0.05715575  0.40734410  0.13280316    -0.03500
C1254       C  0.04781209  0.41268851  0.12107306     0.08700
C1255       C  0.02527498  0.39095651  0.11810311     0.02500
H1256       H  0.07476985  0.41975482  0.13807483     0.10200
H1257       H  0.01268691  0.38785142  0.10949248     0.09300
N1258       N  0.04405924  0.33856397  0.16754581    -0.34600
N1259       N  0.02582667  0.31474699  0.16889970    -0.26700
C1260       C  0.03198121  0.30412895  0.17918807    -0.02000
C1261       C  0.05511702  0.32213654  0.18449445     0.06600
C1262       C  0.06227015  0.34369886  0.17692075     0.04700
H1263       H  0.02047707  0.28476020  0.18252145     0.09800
H1264       H  0.07943972  0.36178678  0.17810354     0.08700
N1265       N  0.64638708  0.96622227  0.14201103    -0.25700
N1266       N  0.63204093  0.96681198  0.13197181    -0.33600
C1267       C  0.64565222  0.98787538  0.12438683     0.02600
C1268       C  0.66960057  0.00109638  0.12992451     0.08600
C1269       C  0.66953799  0.98696396  0.14106698    -0.04500
H1270       H  0.63863698  0.99306790  0.11545609     0.09300
H1271       H  0.68514456  0.99128173  0.14790850     0.10500
Cu1272     Cu  0.59471806  0.93898648  0.12869877     0.44200
Cu1273     Cu  0.63410346  0.93688003  0.15626759     0.42000
Cu1274     Cu  0.56929184  0.88619472  0.15228632     0.43900
N1275       N  0.55807703  0.90859317  0.12746795    -0.33100
N1276       N  0.54876178  0.88928951  0.13617430    -0.27400
C1277       C  0.52483748  0.87252835  0.13252282    -0.03500
C1278       C  0.51892827  0.88181754  0.12101041     0.08700
C1279       C  0.54031461  0.90464313  0.11803171     0.02500
H1280       H  0.51279347  0.85480685  0.13776781     0.10200
H1281       H  0.54289531  0.91731739  0.10957691     0.09300
N1282       N  0.59375941  0.88599347  0.16693728    -0.34600
N1283       N  0.61746557  0.90443163  0.16841852    -0.26700
C1284       C  0.62818932  0.89828858  0.17865469    -0.02000
C1285       C  0.61033365  0.87494549  0.18378236     0.06600
C1286       C  0.58875824  0.86766385  0.17617089     0.04700
H1287       H  0.64749519  0.90996513  0.18210223     0.09800
H1288       H  0.57074455  0.85036625  0.17725133     0.08700
N1289       N  0.83297957  0.18730380  0.09778931    -0.25700
N1290       N  0.82622033  0.17290414  0.10906413    -0.33600
C1291       C  0.84464585  0.18399639  0.11869295     0.02600
C1292       C  0.86374853  0.20629840  0.11313043     0.08600
C1293       C  0.85582258  0.20786684  0.09991802    -0.04500
H1294       H  0.84406757  0.17645417  0.12897133     0.09300
H1295       H  0.86576758  0.22293642  0.09244093     0.10500
Cu1296     Cu  0.79225679  0.13884889  0.11076405     0.44200
Cu1297     Cu  0.81086258  0.17901729  0.08008179     0.42000
Cu1298     Cu  0.75146995  0.12033877  0.08029135     0.43900
N1299       N  0.75802053  0.10503269  0.10921507    -0.33100
N1300       N  0.74335517  0.09831934  0.09804125    -0.27400
C1301       C  0.72284939  0.07546192  0.10022492    -0.03500
C1302       C  0.72474489  0.06747569  0.11336050     0.08700
C1303       C  0.74717257  0.08656789  0.11882375     0.02500
H1304       H  0.70765768  0.06548409  0.09280995     0.10200
H1305       H  0.75502155  0.08706507  0.12900004     0.09300
N1306       N  0.76334352  0.14579311  0.06390934    -0.34600
N1307       N  0.78515642  0.16736055  0.06384463    -0.26700
C1308       C  0.78694801  0.17998689  0.05206015    -0.02000
C1309       C  0.76524888  0.16558439  0.04440301     0.06600
C1310       C  0.75065077  0.14408042  0.05215736     0.04700
H1311       H  0.80264656  0.19844492  0.04942229     0.09800
H1312       H  0.73201545  0.12857845  0.04960770     0.08700
N1313       N  0.31353020  0.28692990  0.14052993    -0.25700
N1314       N  0.32888813  0.30245860  0.13078298    -0.33600
C1315       C  0.33785061  0.29055117  0.12320996     0.02600
C1316       C  0.32766042  0.26649185  0.12842266     0.08600
C1317       C  0.31235235  0.26476419  0.13937483    -0.04500
H1318       H  0.35049372  0.29868709  0.11439868     0.09300
H1319       H  0.30090722  0.24851059  0.14589535     0.10500
Cu1320     Cu  0.33612325  0.33876465  0.12743633     0.44200
Cu1321     Cu  0.29403125  0.29602638  0.15474368     0.42000
Cu1322     Cu  0.30214408  0.35744325  0.14957426     0.43900
N1323       N  0.33772809  0.37290143  0.12516129    -0.33100
N1324       N  0.32485037  0.37945720  0.13327092    -0.27400
C1325       C  0.32904020  0.40197570  0.12914494    -0.03500
C1326       C  0.34534477  0.40997946  0.11792392     0.08700
C1327       C  0.35055757  0.39120042  0.11563712     0.02500
H1328       H  0.32082274  0.41177326  0.13397718     0.10200
H1329       H  0.36265370  0.39079628  0.10764306     0.09300
N1330       N  0.28030567  0.33298442  0.16535341    -0.34600
N1331       N  0.27709858  0.31046302  0.16733407    -0.26700
C1332       C  0.26179805  0.29961163  0.17842948    -0.02000
C1333       C  0.25524761  0.31620813  0.18357175     0.06600
C1334       C  0.26724801  0.33709318  0.17508282     0.04700
H1335       H  0.25594618  0.28110687  0.18243363     0.09800
H1336       H  0.26656689  0.35406342  0.17589355     0.08700
N1337       N  0.27865556  0.91370864  0.16858652    -0.25700
N1338       N  0.28176073  0.89442710  0.16669142    -0.33600
C1339       C  0.26794676  0.87655198  0.17621491     0.02600
C1340       C  0.25563838  0.88501149  0.18446556     0.08600
C1341       C  0.26277470  0.90858092  0.17938775    -0.04500
H1342       H  0.26690360  0.85870048  0.17702945     0.09300
H1343       H  0.25682442  0.92104496  0.18320028     0.10500
Cu1344     Cu  0.30445776  0.89303160  0.15119057     0.44200
Cu1345     Cu  0.29590428  0.94598541  0.15624943     0.42000
Cu1346     Cu  0.33504881  0.94669563  0.12792175     0.43900
N1347       N  0.32781242  0.89602889  0.13478353    -0.33100
N1348       N  0.33888558  0.91556450  0.12623347    -0.27400
C1349       C  0.35238001  0.91159034  0.11668900    -0.03500
C1350       C  0.34964813  0.88852750  0.11942620     0.08700
C1351       C  0.33399072  0.87912883  0.13091611     0.02500
H1352       H  0.36321879  0.92447002  0.10835525     0.10200
H1353       H  0.32740486  0.86126206  0.13603007     0.09300
N1354       N  0.32883937  0.97587470  0.13187587    -0.34600
N1355       N  0.31462337  0.97570810  0.14222655    -0.26700
C1356       C  0.31429561  0.99717072  0.14181405    -0.02000
C1357       C  0.32902195  0.01140753  0.13070952     0.06600
C1358       C  0.33792391  0.99741700  0.12461887     0.04700
H1359       H  0.30390149  0.00189570  0.14897184     0.09800
H1360       H  0.34991132  0.00238148  0.11550793     0.08700
N1361       N  0.34334797  0.11308701  0.10925186    -0.25700
N1362       N  0.35363817  0.10777507  0.09872692    -0.33600
C1363       C  0.35318534  0.08639538  0.10157235     0.02600
C1364       C  0.34207550  0.07781329  0.11446462     0.08600
C1365       C  0.33600610  0.09506837  0.11908977    -0.04500
H1366       H  0.36029934  0.07768716  0.09470149     0.09300
H1367       H  0.32689294  0.09455649  0.12882650     0.10500
Cu1368     Cu  0.36799790  0.12953871  0.08086845     0.44200
Cu1369     Cu  0.34035975  0.14499103  0.10968667     0.42000
Cu1370     Cu  0.37089984  0.18867394  0.08063569     0.43900
N1371       N  0.38293900  0.15478180  0.06441613    -0.33100
N1372       N  0.38444069  0.17676298  0.06438449    -0.27400
C1373       C  0.39565782  0.18899683  0.05246278    -0.03500
C1374       C  0.40134285  0.17387876  0.04469410     0.08700
C1375       C  0.39307519  0.15237717  0.05253026     0.02500
H1376       H  0.39951572  0.20753572  0.04972358     0.10200
H1377       H  0.39458205  0.13630870  0.04989526     0.09300
N1378       N  0.35403814  0.19544451  0.09746067    -0.34600
N1379       N  0.34254354  0.17952474  0.10790261    -0.26700
C1380       C  0.33368842  0.18977294  0.11691884    -0.02000
C1381       C  0.33999093  0.21315890  0.11188060     0.06600
C1382       C  0.35284070  0.21617074  0.09957274     0.04700
H1383       H  0.32368016  0.18096820  0.12648755     0.09800
H1384       H  0.36087054  0.23229292  0.09267718     0.08700
N1385       N  0.27681261  0.74451342  0.04895542    -0.25700
N1386       N  0.27220955  0.72719105  0.05846111    -0.33600
C1387       C  0.29248815  0.73568423  0.06679396     0.02600
C1388       C  0.31060593  0.75947231  0.06233894     0.08600
C1389       C  0.30010148  0.76454169  0.05103203    -0.04500
H1390       H  0.29395102  0.72531123  0.07544018     0.09300
H1391       H  0.30881703  0.78140393  0.04470853     0.10500
Cu1392     Cu  0.23866404  0.69262253  0.05959268     0.44200
Cu1393     Cu  0.25138540  0.73973681  0.03338953     0.42000
Cu1394     Cu  0.19129350  0.68026150  0.03363917     0.43900
N1395       N  0.20405485  0.65911511  0.05847003    -0.33100
N1396       N  0.18659610  0.65464265  0.04906461    -0.27400
C1397       C  0.16657925  0.63134175  0.05110395    -0.03500
C1398       C  0.17181201  0.62068213  0.06227122     0.08700
C1399       C  0.19566924  0.63874774  0.06669624     0.02500
H1400       H  0.14959898  0.62273121  0.04485879     0.10200
H1401       H  0.20614645  0.63720495  0.07526531     0.09300
N1402       N  0.20123805  0.70836644  0.01884348    -0.34600
N1403       N  0.22309555  0.72993369  0.01872796    -0.26700
C1404       C  0.22374437  0.74361427  0.00765955    -0.02000
C1405       C  0.20125913  0.72998765  0.00054675     0.06600
C1406       C  0.18741281  0.70777906  0.00785413     0.04700
H1407       H  0.23949696  0.76199619  0.00495069     0.09800
H1408       H  0.16878883  0.69223871  0.00532187     0.08700
N1409       N  0.15088426  0.55370144  0.07094563    -0.35100
N1410       N  0.11957872  0.50361708  0.08311965    -0.55600
N1411       N  0.08883058  0.52039497  0.09653968    -0.35000
N1412       N  0.11807865  0.56936061  0.08289387    -0.55600
C1413       C  0.16025992  0.54118464  0.06422995     0.28500
C1414       C  0.15983948  0.57602059  0.06435997     0.28500
C1415       C  0.07540203  0.49564498  0.09980913     0.28500
C1416       C  0.07426939  0.53009108  0.09945534     0.28500
C1417       C  0.13827104  0.50102888  0.07782377     0.37200
C1418       C  0.10609230  0.48383140  0.09176174     0.37200
C1419       C  0.13618382  0.59176198  0.07766629     0.37200
C1420       C  0.10333292  0.57410195  0.09112710     0.37200
C1421       C  0.17558490  0.55585894  0.05332811    -0.20300
C1422       C  0.17535237  0.57783329  0.05342557    -0.20300
C1423       C  0.05202333  0.48954250  0.10494852    -0.20300
C1424       C  0.05130007  0.51126050  0.10471742    -0.20300
C1425       C  0.13633077  0.47922543  0.08289394    -0.21400
C1426       C  0.11598696  0.46835753  0.09173471    -0.21400
C1427       C  0.13259476  0.61073882  0.08235356    -0.21400
C1428       C  0.11179869  0.59956888  0.09086543    -0.21400
C1429       C  0.15664003  0.51758775  0.06814621    -0.16700
C1430       C  0.15539861  0.59530325  0.06832301    -0.16700
C1431       C  0.08178842  0.55574535  0.09846688    -0.16700
C1432       C  0.08431267  0.47887898  0.09918550    -0.16700
H1433       H  0.18605805  0.55131667  0.04611462     0.16200
H1434       H  0.18555977  0.59342712  0.04628302     0.16200
H1435       H  0.03714506  0.47139704  0.10866170     0.16200
H1436       H  0.03575505  0.51305164  0.10823252     0.16200
H1437       H  0.14835812  0.47192256  0.08051156     0.14500
H1438       H  0.10922128  0.45099672  0.09745082     0.14500
H1439       H  0.14376994  0.63057620  0.07989386     0.14500
H1440       H  0.10381748  0.60913261  0.09623093     0.14500
H1441       H  0.14137347  0.54858915  0.08040203     0.27700
H1442       H  0.10785777  0.53067344  0.09417083     0.27700
N1443       N  0.44078837  0.65464008  0.05324309    -0.25700
N1444       N  0.42611641  0.65828365  0.06166847    -0.33600
C1445       C  0.41422093  0.63862099  0.07045631     0.02600
C1446       C  0.42206248  0.62202538  0.06748518     0.08600
C1447       C  0.43883108  0.63268672  0.05651945    -0.04500
H1448       H  0.40071847  0.63645627  0.07831516     0.09300
H1449       H  0.44834601  0.62474139  0.05107479     0.10500
Cu1450     Cu  0.42322061  0.68993762  0.06076997     0.44200
Cu1451     Cu  0.46160297  0.67899051  0.03716991     0.42000
Cu1452     Cu  0.46153209  0.73711722  0.03469942     0.43900
N1453       N  0.42532093  0.72411460  0.05876854    -0.33100
N1454       N  0.43960122  0.74157834  0.04950576    -0.27400
C1455       C  0.43725451  0.76170269  0.05140595    -0.03500
C1456       C  0.42060882  0.75646331  0.06230111     0.08700
C1457       C  0.41345148  0.73257167  0.06674027     0.02500
H1458       H  0.44703956  0.77889043  0.04538388     0.10200
H1459       H  0.40091937  0.72227745  0.07530869     0.09300
N1460       N  0.47982880  0.72659680  0.02052837    -0.34600
N1461       N  0.47963493  0.70528461  0.02142218    -0.26700
C1462       C  0.49221363  0.70354009  0.01046396    -0.02000
C1463       C  0.50073362  0.72476082  0.00234866     0.06600
C1464       C  0.49262154  0.73901443  0.00896553     0.04700
H1465       H  0.49465909  0.68782867  0.00848010     0.09800
H1466       H  0.49543833  0.75686147  0.00553588     0.08700
N1467       N  0.37728747  0.77962565  0.07123311    -0.35100
N1468       N  0.42704727  0.80997656  0.08378702    -0.55600
N1469       N  0.41076198  0.84134321  0.09702999    -0.35000
N1470       N  0.36214438  0.81303078  0.08296648    -0.55600
C1471       C  0.38976229  0.77020507  0.06450403     0.28500
C1472       C  0.35520692  0.77120941  0.06445678     0.28500
C1473       C  0.43551792  0.85438974  0.10037991     0.28500
C1474       C  0.40146345  0.85632070  0.09975029     0.28500
C1475       C  0.42946600  0.79120909  0.07849299     0.37200
C1476       C  0.44673490  0.82315802  0.09253662     0.37200
C1477       C  0.33969110  0.79513285  0.07766159     0.37200
C1478       C  0.35752447  0.82798516  0.09108388     0.37200
C1479       C  0.37530388  0.75541682  0.05339646    -0.20300
C1480       C  0.35348921  0.75600664  0.05338541    -0.20300
C1481       C  0.44200854  0.87791182  0.10541251    -0.20300
C1482       C  0.42053407  0.87913066  0.10501385    -0.20300
C1483       C  0.45102157  0.79273219  0.08370944    -0.21400
C1484       C  0.46194432  0.81294228  0.09261792    -0.21400
C1485       C  0.32083023  0.79907632  0.08217089    -0.21400
C1486       C  0.33211187  0.81988317  0.09064736    -0.21400
C1487       C  0.41309883  0.77330656  0.06858695    -0.16700
C1488       C  0.33601681  0.77582285  0.06837876    -0.16700
C1489       C  0.37594938  0.84936489  0.09849972    -0.16700
C1490       C  0.45198200  0.84508785  0.09984835    -0.16700
H1491       H  0.37988150  0.74506637  0.04611957     0.16200
H1492       H  0.33807052  0.74626080  0.04607298     0.16200
H1493       H  0.46026557  0.89259169  0.10913180     0.16200
H1494       H  0.41907348  0.89492524  0.10837417     0.16200
H1495       H  0.45817623  0.78058409  0.08133444     0.14500
H1496       H  0.47921439  0.81946308  0.09841205     0.14500
H1497       H  0.30099677  0.78813953  0.07960555     0.14500
H1498       H  0.32264707  0.82808781  0.09589120     0.14500
H1499       H  0.38215812  0.78875436  0.08080653     0.27700
H1500       H  0.40022488  0.82234587  0.09466844     0.27700
N1501       N  0.37508600  0.55459859  0.07638203    -0.35100
N1502       N  0.35812407  0.50354508  0.08586358    -0.55600
N1503       N  0.40785384  0.52110820  0.09726850    -0.35000
N1504       N  0.42568219  0.57131611  0.08641600    -0.55600
C1505       C  0.35270959  0.54145975  0.06968765     0.28500
C1506       C  0.38839788  0.57721857  0.06996603     0.28500
C1507       C  0.39717838  0.49599554  0.09898727     0.28500
C1508       C  0.43295599  0.53182114  0.09919946     0.28500
C1509       C  0.33579907  0.50012340  0.08164996     0.37200
C1510       C  0.35286152  0.48266600  0.09307392     0.37200
C1511       C  0.42916753  0.59376981  0.08249552     0.37200
C1512       C  0.44624724  0.57630597  0.09388354     0.37200
C1513       C  0.35165332  0.55604541  0.05905634    -0.20300
C1514       C  0.37415615  0.57859169  0.05923213    -0.20300
C1515       C  0.41572700  0.49069516  0.10211784    -0.20300
C1516       C  0.43828874  0.51328164  0.10224187    -0.20300
C1517       C  0.31627507  0.47685106  0.08605031    -0.21400
C1518       C  0.32707517  0.46579732  0.09329770    -0.21400
C1519       C  0.45213884  0.61312338  0.08737457    -0.21400
C1520       C  0.46295564  0.60206844  0.09460705    -0.21400
C1521       C  0.33286587  0.51697298  0.07313658    -0.16700
C1522       C  0.41273771  0.59697444  0.07375971    -0.16700
C1523       C  0.45088931  0.55794261  0.09927078    -0.16700
C1524       C  0.37105229  0.47798202  0.09873089    -0.16700
H1525       H  0.33632032  0.55093301  0.05183581     0.16200
H1526       H  0.37946226  0.59416657  0.05218050     0.16200
H1527       H  0.41323911  0.47246618  0.10425923     0.16200
H1528       H  0.45651507  0.51578979  0.10451139     0.16200
H1529       H  0.29634014  0.46859251  0.08413317     0.14500
H1530       H  0.31709357  0.44731730  0.09802949     0.14500
H1531       H  0.46036153  0.63310511  0.08576591     0.14500
H1532       H  0.48119873  0.61187558  0.09964616     0.14500
H1533       H  0.37994965  0.54938833  0.08561480     0.27700
H1534       H  0.39829060  0.53062369  0.09656427     0.27700
N1535       N  0.27518957  0.48950246  0.05262159    -0.25700
N1536       N  0.27188640  0.50454941  0.06091056    -0.33600
C1537       C  0.29164894  0.51634634  0.06965236     0.02600
C1538       C  0.30792672  0.50804812  0.06678754     0.08600
C1539       C  0.29699305  0.49110933  0.05593872    -0.04500
H1540       H  0.29406876  0.53004065  0.07743393     0.09300
H1541       H  0.30462974  0.48119920  0.05061315     0.10500
Cu1542     Cu  0.24047033  0.50796750  0.06002090     0.44200
Cu1543     Cu  0.25068448  0.46859439  0.03667837     0.42000
Cu1544     Cu  0.19303442  0.46951841  0.03421215     0.43900
N1545       N  0.20611857  0.50572136  0.05822105    -0.33100
N1546       N  0.18853818  0.49129406  0.04904410    -0.27400
C1547       C  0.16826018  0.49338194  0.05104557    -0.03500
C1548       C  0.17350048  0.51001735  0.06192484     0.08700
C1549       C  0.19758149  0.51746620  0.06623846     0.02500
H1550       H  0.15099711  0.48348276  0.04507403     0.10200
H1551       H  0.20796163  0.53013961  0.07473627     0.09300
N1552       N  0.20310412  0.45082034  0.02011752    -0.34600
N1553       N  0.22425723  0.45066148  0.02102700    -0.26700
C1554       C  0.22568801  0.43775357  0.01016105    -0.02000
C1555       C  0.20441279  0.42938264  0.00209808     0.06600
C1556       C  0.19046002  0.43793070  0.00863310     0.04700
H1557       H  0.24122060  0.43497956  0.00820569     0.09800
H1558       H  0.17266698  0.43532713  0.00521017     0.08700
N1559       N  0.64220738  0.61568721  0.14085074    -0.25700
N1560       N  0.62683990  0.60053326  0.13098710    -0.33600
C1561       C  0.63879033  0.59150068  0.12351418     0.02600
C1562       C  0.66272198  0.60142822  0.12890918     0.08600
C1563       C  0.66433123  0.61666428  0.13986416    -0.04500
H1564       H  0.63077461  0.57899099  0.11464668     0.09300
H1565       H  0.68048046  0.62792304  0.14650126     0.10500
Cu1566     Cu  0.59065557  0.59350121  0.12741296     0.44200
Cu1567     Cu  0.63290162  0.63504700  0.15507226     0.42000
Cu1568     Cu  0.57137960  0.62648379  0.15010853     0.43900
N1569       N  0.55632219  0.59156904  0.12537929    -0.33100
N1570       N  0.54955766  0.60403387  0.13368378    -0.27400
C1571       C  0.52683699  0.59956071  0.12971215    -0.03500
C1572       C  0.51893027  0.58350216  0.11840205     0.08700
C1573       C  0.53795964  0.57872598  0.11588479     0.02500
H1574       H  0.51683524  0.60741362  0.13471448     0.10200
H1575       H  0.53848529  0.56690845  0.10776532     0.09300
N1576       N  0.59560622  0.64810562  0.16602790    -0.34600
N1577       N  0.61829358  0.65158354  0.16789104    -0.26700
C1578       C  0.62922651  0.66701141  0.17892609    -0.02000
C1579       C  0.61250762  0.67335443  0.18416827     0.06600
C1580       C  0.59144748  0.66107889  0.17578923     0.04700
H1581       H  0.64795589  0.67325638  0.18275758     0.09800
H1582       H  0.57443054  0.66171770  0.17661122     0.08700
N1583       N  0.01833762  0.65428385  0.16789049    -0.25700
N1584       N  0.03732713  0.65060263  0.16628083    -0.33600
C1585       C  0.05523688  0.66441537  0.17578779     0.02600
C1586       C  0.04709034  0.67732922  0.18372806     0.08600
C1587       C  0.02368183  0.67055107  0.17849333    -0.04500
H1588       H  0.07283031  0.66493694  0.17684688     0.09300
H1589       H  0.01141055  0.67688351  0.18211934     0.10500
Cu1590     Cu  0.03815986  0.62697355  0.15128260     0.44200
Cu1591     Cu  0.98600846  0.63692713  0.15559715     0.42000
Cu1592     Cu  0.98433887  0.59604332  0.12807786     0.43900
N1593       N  0.03492070  0.60311431  0.13519843    -0.33100
N1594       N  0.01538772  0.59198242  0.12663265    -0.27400
C1595       C  0.01946304  0.57852434  0.11713270    -0.03500
C1596       C  0.04257944  0.58135926  0.11992653     0.08700
C1597       C  0.05191067  0.59700610  0.13140176     0.02500
H1598       H  0.00671033  0.56780745  0.10872370     0.10200
H1599       H  0.06988414  0.60382311  0.13647269     0.09300
N1600       N  0.95532218  0.60261259  0.13185286    -0.34600
N1601       N  0.95587151  0.61748302  0.14191380    -0.26700
C1602       C  0.93444629  0.61792211  0.14147018    -0.02000
C1603       C  0.91983002  0.60259668  0.13064511     0.06600
C1604       C  0.93355365  0.59320882  0.12474801     0.04700
H1605       H  0.93002102  0.62882787  0.14840125     0.09800
H1606       H  0.92827694  0.58071194  0.11585680     0.08700
N1607       N  0.75034206  0.58743983  0.10836566    -0.25700
N1608       N  0.73458914  0.57621337  0.09781166    -0.33600
C1609       C  0.71369101  0.57714909  0.09994140     0.02600
C1610       C  0.71640092  0.58951755  0.11238510     0.08600
C1611       C  0.73979174  0.59583091  0.11747579    -0.04500
H1612       H  0.69764954  0.56924425  0.09297182     0.09300
H1613       H  0.74840527  0.60554666  0.12714157     0.10500
Cu1614     Cu  0.74162508  0.55982405  0.08087099     0.44200
Cu1615     Cu  0.78512984  0.59001838  0.11021831     0.42000
Cu1616     Cu  0.80095707  0.56314117  0.08132022     0.43900
N1617       N  0.75375360  0.54630504  0.06473840    -0.33100
N1618       N  0.77582718  0.54794382  0.06487266    -0.27400
C1619       C  0.77843738  0.53781310  0.05305455    -0.03500
C1620       C  0.75696377  0.52940962  0.04515576     0.08700
C1621       C  0.74164455  0.53498874  0.05281019     0.02500
H1622       H  0.79463535  0.53643550  0.05050533     0.10200
H1623       H  0.72307023  0.53101431  0.04998465     0.09300
N1624       N  0.82296157  0.57777672  0.09903135    -0.34600
N1625       N  0.81752405  0.58776949  0.10964818    -0.26700
C1626       C  0.83574330  0.59528936  0.11940012    -0.02000
C1627       C  0.85324347  0.58964614  0.11459929     0.06600
C1628       C  0.84460385  0.57860905  0.10170841     0.04700
H1629       H  0.83619386  0.60416993  0.12920853     0.09800
H1630       H  0.85339759  0.57171559  0.09474378     0.08700
O1631       O  0.17995077  0.79762256  0.24082935    -0.71400
O1632       O  0.13299165  0.75139481  0.27063672    -0.72400
O1633       O  0.13314107  0.75113853  0.24084916    -0.61000
O1634       O  0.17976074  0.79780215  0.27060063    -0.69400
O1635       O  0.15954403  0.81854721  0.27050349    -0.68900
O1636       O  0.11277748  0.77173874  0.24066677    -0.60200
O1637       O  0.11261881  0.77198556  0.27054326    -0.72700
O1638       O  0.15968586  0.81831814  0.24065306    -0.71500
Cu1639     Cu  0.15715222  0.77376382  0.25573237     1.04600
Cu1640     Cu  0.13542315  0.79587114  0.25558059     1.04300
C1641       C  0.17717117  0.81519363  0.23606803     0.94800
C1642       C  0.11557688  0.75452461  0.27531717     0.94000
C1643       C  0.11574195  0.75418960  0.23605626     0.86100
C1644       C  0.17693877  0.81541152  0.27524046     0.92400
C1645       C  0.06029683  0.69411723  0.19518732    -0.17000
C1646       C  0.07202610  0.70797559  0.20475304     0.07100
C1647       C  0.08649995  0.72405847  0.21586347     0.09000
C1648       C  0.09947582  0.73776991  0.22519273    -0.17800
C1649       C  0.89587644  0.59829231  0.12593723    -0.11700
C1650       C  0.87615008  0.59455237  0.12127608    -0.13300
C1651       C  0.69819228  0.59420692  0.11877109    -0.11700
C1652       C  0.68227712  0.59764836  0.12365161    -0.13300
C1653       C  0.47546478  0.56638771  0.10533832    -0.11700
C1654       C  0.49553495  0.57383979  0.11096184    -0.13300
C1655       C  0.06667768  0.56385119  0.10568082    -0.11700
C1656       C  0.05513902  0.57137264  0.11206372    -0.13300
C1657       C  0.19393282  0.83159631  0.22533801    -0.17000
C1658       C  0.20803045  0.84487414  0.21620397     0.07100
C1659       C  0.22456634  0.85975221  0.20532007     0.09000
C1660       C  0.23870235  0.87172067  0.19588413    -0.17800
C1661       C  0.33335880  0.03533047  0.12597452    -0.11700
C1662       C  0.33718204  0.05501204  0.12123527    -0.13300
C1663       C  0.36799432  0.86481076  0.10550356    -0.11700
C1664       C  0.36017862  0.87629053  0.11170043    -0.13300
C1665       C  0.33497104  0.23115795  0.11821664    -0.11700
C1666       C  0.33141819  0.24698982  0.12308478    -0.13300
C1667       C  0.36244047  0.45333790  0.10474775    -0.11700
C1668       C  0.35493925  0.43329156  0.11040154    -0.13300
C1669       C  0.70659117  0.04423833  0.11997083    -0.11700
C1670       C  0.69026306  0.02458021  0.12486681    -0.13300
C1671       C  0.49555049  0.86974181  0.11343946    -0.11700
C1672       C  0.47582848  0.85897468  0.10718830    -0.13300
C1673       C  0.90635985  0.24120401  0.12471510    -0.11700
C1674       C  0.88683010  0.22473457  0.11976744    -0.13300
C1675       C  0.07037208  0.45521526  0.10670239    -0.11700
C1676       C  0.05971158  0.43575951  0.11320459    -0.13300
C1677       C  0.61618264  0.68990064  0.19567132    -0.17000
C1678       C  0.61794414  0.70363520  0.20510864     0.07100
C1679       C  0.61892029  0.71953567  0.21600253     0.09000
C1680       C  0.61918836  0.73297590  0.22520278    -0.17800
C1681       C  0.61772380  0.82360864  0.22533479    -0.17000
C1682       C  0.61680340  0.83582355  0.21580269     0.07100
C1683       C  0.61516704  0.84963265  0.20453491     0.09000
C1684       C  0.61327840  0.86125046  0.19499561    -0.17800
C1685       C  0.06888383  0.31923424  0.19570696    -0.17000
C1686       C  0.08068935  0.31734211  0.20515570     0.07100
C1687       C  0.09486660  0.31565680  0.21622246     0.09000
C1688       C  0.10739514  0.31461816  0.22555083    -0.17800
C1689       C  0.23929545  0.31289049  0.19531319    -0.17000
C1690       C  0.22617964  0.31171176  0.20495373     0.07100
C1691       C  0.21097201  0.31154083  0.21601423     0.09000
C1692       C  0.19791473  0.31182522  0.22527164    -0.17800
C1693       C  0.06084214  0.69414390  0.31626415    -0.17000
C1694       C  0.07237012  0.70819621  0.30672152     0.07100
C1695       C  0.08653995  0.72451061  0.29561123     0.09000
C1696       C  0.09932410  0.73827725  0.28624497    -0.17800
C1697       C  0.89669160  0.59731540  0.38563566    -0.11700
C1698       C  0.87710147  0.59390156  0.39031703    -0.13300
C1699       C  0.61992143  0.73205980  0.28562609    -0.17000
C1700       C  0.61976062  0.71817171  0.29449764     0.07100
C1701       C  0.61882648  0.70186790  0.30511317     0.09000
C1702       C  0.61703875  0.68801006  0.31447336    -0.17800
C1703       C  0.69913461  0.59418829  0.39246055    -0.11700
C1704       C  0.68321000  0.59774073  0.38769411    -0.13300
C1705       C  0.47581045  0.56657232  0.40506157    -0.11700
C1706       C  0.49609514  0.57428878  0.39963501    -0.13300
C1707       C  0.05753773  0.57290129  0.39968302    -0.11700
C1708       C  0.06902517  0.56518199  0.40592561    -0.13300
C1709       C  0.19353519  0.83176270  0.28603633    -0.17000
C1710       C  0.20763108  0.84475629  0.29524688     0.07100
C1711       C  0.22426401  0.85922894  0.30619336     0.09000
C1712       C  0.23847622  0.87095497  0.31565199    -0.17800
C1713       C  0.33381253  0.03424950  0.38584950    -0.11700
C1714       C  0.33750537  0.05395408  0.39049356    -0.13300
C1715       C  0.35892449  0.87376859  0.39954397    -0.11700
C1716       C  0.36689893  0.86234922  0.40562699    -0.13300
C1717       C  0.19849174  0.31078018  0.28563401    -0.17000
C1718       C  0.21194926  0.31045372  0.29462007     0.07100
C1719       C  0.22757321  0.31070155  0.30544091     0.09000
C1720       C  0.24091548  0.31202262  0.31498013    -0.17800
C1721       C  0.33578000  0.23090123  0.39287495    -0.11700
C1722       C  0.33195571  0.24665913  0.38817139    -0.13300
C1723       C  0.36230668  0.45334249  0.40549730    -0.11700
C1724       C  0.35454540  0.43305073  0.40009619    -0.13300
C1725       C  0.61374971  0.86101043  0.31700995    -0.17000
C1726       C  0.61578392  0.84953203  0.30744766     0.07100
C1727       C  0.61757679  0.83571929  0.29623873     0.09000
C1728       C  0.61848278  0.82340903  0.28675844    -0.17800
C1729       C  0.69160100  0.02325312  0.38785150    -0.11700
C1730       C  0.70779868  0.04314320  0.39259246    -0.13300
C1731       C  0.47585887  0.85813476  0.40466908    -0.11700
C1732       C  0.49587802  0.86905475  0.39870197    -0.13300
C1733       C  0.06869674  0.31774623  0.31628782    -0.17000
C1734       C  0.08032244  0.31566804  0.30681451     0.07100
C1735       C  0.09456845  0.31400020  0.29579769     0.09000
C1736       C  0.10729174  0.31322715  0.28650464    -0.17800
C1737       C  0.88805567  0.22393640  0.39282014    -0.11700
C1738       C  0.90788498  0.24027406  0.38807954    -0.13300
C1739       C  0.07165375  0.45571551  0.40478528    -0.11700
C1740       C  0.06103464  0.43600553  0.39849708    -0.13300
C1741       C  0.18806393  0.74312206  0.97726174    -0.11700
C1742       C  0.19401883  0.73717189  0.98792160    -0.13300
C1743       C  0.25670843  0.88994224  0.88371995    -0.11700
C1744       C  0.24018642  0.87029575  0.88849037    -0.13300
C1745       C  0.04110148  0.67259785  0.88375574    -0.11700
C1746       C  0.06062272  0.68918557  0.88862765    -0.13300
C1747       C  0.41417376  0.17965149  0.03144571    -0.11700
C1748       C  0.42532160  0.18438160  0.02046428    -0.13300
C1749       C  0.74676164  0.50543168  0.02098810    -0.11700
C1750       C  0.75139895  0.51659888  0.03193823    -0.13300
C1751       C  0.87356785  0.46091817  0.90315777    -0.11700
C1752       C  0.88465949  0.48008986  0.89647162    -0.13300
C1753       C  0.52566523  0.73500122  0.97845874    -0.11700
C1754       C  0.51437865  0.73033052  0.98938554    -0.13300
C1755       C  0.61022590  0.68760657  0.89306120    -0.11700
C1756       C  0.61294438  0.67125062  0.88821886    -0.13300
C1757       C  0.58860668  0.48430937  0.90025645    -0.11700
C1758       C  0.58106031  0.46434925  0.90596356    -0.13300
C1759       C  0.61675398  0.88656971  0.88849131    -0.11700
C1760       C  0.61338611  0.86699707  0.89311263    -0.13300
C1761       C  0.75850786  0.17233975  0.03147890    -0.11700
C1762       C  0.75260499  0.17828338  0.02081320    -0.13300
C1763       C  0.46987379  0.05759526  0.90341391    -0.11700
C1764       C  0.45043148  0.04635462  0.89691120    -0.13300
C1765       C  0.58011129  0.05692159  0.90606743    -0.11700
C1766       C  0.58763980  0.04510878  0.89998065    -0.13300
C1767       C  0.19862383  0.41556386  0.98921794    -0.11700
C1768       C  0.19404547  0.40426017  0.97832140    -0.13300
C1769       C  0.04448920  0.31450959  0.88763567    -0.11700
C1770       C  0.06395043  0.31766142  0.89234691    -0.13300
C1771       C  0.88557109  0.34311326  0.89944395    -0.11700
C1772       C  0.87380822  0.35066632  0.90553883    -0.13300
C1773       C  0.25904077  0.31602418  0.88868772    -0.11700
C1774       C  0.24307182  0.31949852  0.89344905    -0.13300
C1775       C  0.44769689  0.34400736  0.90048217    -0.11700
C1776       C  0.46765765  0.35167037  0.90628194    -0.13300
C1777       C  0.33071587  0.05566231  0.81646795    -0.17000
C1778       C  0.32822624  0.06727503  0.80716786     0.07100
C1779       C  0.32599133  0.08133538  0.79628798     0.09000
C1780       C  0.32486060  0.09385149  0.78702384    -0.17800
C1781       C  0.32314502  0.18521225  0.78564533    -0.17000
C1782       C  0.32368581  0.19922873  0.79455550     0.07100
C1783       C  0.32535950  0.21578234  0.80522582     0.09000
C1784       C  0.32773647  0.22987749  0.81458560    -0.17800
C1785       C  0.75151938  0.08432386  0.78614140    -0.17000
C1786       C  0.73765267  0.07183004  0.79554553     0.07100
C1787       C  0.72136499  0.05796591  0.80672969     0.09000
C1788       C  0.70742435  0.04664341  0.81635240    -0.17800
C1789       C  0.88302930  0.22282550  0.81616798    -0.17000
C1790       C  0.87135302  0.20854720  0.80672220     0.07100
C1791       C  0.85719715  0.19196336  0.79568091     0.09000
C1792       C  0.84463426  0.17796213  0.78632434    -0.17800
C1793       C  0.74580206  0.60944350  0.78551985    -0.17000
C1794       C  0.73188246  0.60904126  0.79446377     0.07100
C1795       C  0.71535481  0.60735629  0.80516869     0.09000
C1796       C  0.70122829  0.60488731  0.81454135    -0.17800
C1797       C  0.83666625  0.60614700  0.78699522    -0.17000
C1798       C  0.84933512  0.60497337  0.79618051     0.07100
C1799       C  0.86355119  0.60270641  0.80699487     0.09000
C1800       C  0.87521140  0.60015401  0.81626773    -0.17800
C1801       C  0.51631565  0.73086658  0.52151957    -0.11700
C1802       C  0.52724812  0.73555130  0.53256684    -0.13300
C1803       C  0.70329896  0.60337708  0.69568783    -0.17000
C1804       C  0.71721895  0.60529417  0.70505043     0.07100
C1805       C  0.73333313  0.60655432  0.71588388     0.09000
C1806       C  0.74687906  0.60702956  0.72508082    -0.17800
C1807       C  0.61315752  0.67135677  0.62387279    -0.11700
C1808       C  0.61022612  0.68749921  0.61888240    -0.13300
C1809       C  0.75294712  0.08355917  0.72481779    -0.17000
C1810       C  0.73933911  0.07099851  0.71534057     0.07100
C1811       C  0.72311107  0.05713880  0.70412780     0.09000
C1812       C  0.70899027  0.04581589  0.69456614    -0.17800
C1813       C  0.61134447  0.88302860  0.62496153    -0.11700
C1814       C  0.60742884  0.86322437  0.62044312    -0.13300
C1815       C  0.75090893  0.17924721  0.49031981    -0.11700
C1816       C  0.75713291  0.17313562  0.47983511    -0.13300
C1817       C  0.75147691  0.51492742  0.47897627    -0.11700
C1818       C  0.74671972  0.50341687  0.48982565    -0.13300
C1819       C  0.58077199  0.46442016  0.60453184    -0.11700
C1820       C  0.58847235  0.48451355  0.61016112    -0.13300
C1821       C  0.42721719  0.18477456  0.49031538    -0.11700
C1822       C  0.41594345  0.17999984  0.47937355    -0.13300
C1823       C  0.57921321  0.05604918  0.60623645    -0.11700
C1824       C  0.58670188  0.04412186  0.61224958    -0.13300
C1825       C  0.18850468  0.74233144  0.53534029    -0.11700
C1826       C  0.19466475  0.73625321  0.52481231    -0.13300
C1827       C  0.33193931  0.05361099  0.69728772    -0.17000
C1828       C  0.32960438  0.06521868  0.70667022     0.07100
C1829       C  0.32749433  0.07956256  0.71746129     0.09000
C1830       C  0.32628155  0.09245988  0.72648245    -0.17800
C1831       C  0.25798638  0.88944244  0.62847969    -0.11700
C1832       C  0.24153028  0.86978018  0.62369574    -0.13300
C1833       C  0.46948165  0.05748946  0.60835170    -0.11700
C1834       C  0.45019403  0.04644791  0.61495738    -0.13300
C1835       C  0.83786753  0.60378389  0.72664290    -0.17000
C1836       C  0.85090191  0.60250954  0.71770314     0.07100
C1837       C  0.86545771  0.60051989  0.70695511     0.09000
C1838       C  0.87718877  0.59828990  0.69757826    -0.17800
C1839       C  0.04128439  0.67285348  0.62851774    -0.11700
C1840       C  0.06069472  0.68960466  0.62363229    -0.13300
C1841       C  0.88476005  0.48035611  0.61516259    -0.11700
C1842       C  0.87376086  0.46112225  0.60853023    -0.13300
C1843       C  0.19501874  0.40495893  0.53365516    -0.11700
C1844       C  0.19983628  0.41608954  0.52268074    -0.13300
C1845       C  0.88418910  0.22139728  0.69511661    -0.17000
C1846       C  0.87274068  0.20722582  0.70462197     0.07100
C1847       C  0.85865624  0.19082679  0.71570779     0.09000
C1848       C  0.84592695  0.17702657  0.72506878    -0.17800
C1849       C  0.04779220  0.31957866  0.62613064    -0.11700
C1850       C  0.06750381  0.32329448  0.62153304    -0.13300
C1851       C  0.88624172  0.34339001  0.61279944    -0.11700
C1852       C  0.87449689  0.35102839  0.60676157    -0.13300
C1853       C  0.32822825  0.22728401  0.69585934    -0.17000
C1854       C  0.32639678  0.21352762  0.70527817     0.07100
C1855       C  0.32515114  0.19750919  0.71613811     0.09000
C1856       C  0.32462341  0.18394181  0.72531570    -0.17800
C1857       C  0.24409864  0.32115606  0.61901068    -0.11700
C1858       C  0.25984955  0.31739367  0.62382410    -0.13300
C1859       C  0.44740968  0.34333449  0.61054901    -0.11700
C1860       C  0.46753066  0.35122950  0.60485898    -0.13300
loop_ 
_geom_bond_atom_site_label_1 
_geom_bond_atom_site_label_2 
_geom_bond_distance 
_geom_bond_site_symmetry_2 
_ccdc_geom_bond_type 
N1            N2   1.325       .  A
N1            C5   1.349       .  A
N1           Cu9   2.087       .  S
N2            C3   1.346       .  A
N2           Cu8   2.086       .  S
C3            C4   1.380       .  A
C3            H6   1.082       .  S
C4            C5   1.382       .  A
C4         C1858   1.444       .  S
C5            H7   1.082       .  S
Cu8          N11   2.086       .  S
Cu9          N19   2.086       .  S
Cu10         N12   2.072       .  S
Cu10         N18   2.072       .  S
N11          N12   1.322       .  A
N11          C15   1.349       .  A
N12          C13   1.345       .  A
C13          C14   1.380       .  A
C13          H16   1.082       .  S
C14          C15   1.383       .  A
C14        C1859   1.443       .  S
C15          H17   1.082       .  S
N18          N19   1.324       .  A
N18          C22   1.344       .  A
N19          C20   1.348       .  A
C20          C21   1.382       .  A
C20          H23   1.082       .  S
C21          C22   1.378       .  A
C21        C1853   1.439       .  S
C22          H24   1.082       .  S
N25          N26   1.322       .  A
N25          C29   1.347       .  A
N25         Cu33   2.075       .  S
N26          C27   1.346       .  A
N26         Cu32   2.074       .  S
C27          C28   1.380       .  A
C27          H30   1.082       .  S
C28          C29   1.381       .  A
C28        C1845   1.440       .  S
C29          H31   1.082       .  S
Cu32         N35   2.073       .  S
Cu33         N43   2.075       .  S
Cu34         N36   2.075       .  S
Cu34         N42   2.076       .  S
N35          N36   1.323       .  A
N35          C39   1.344       .  A
N36          C37   1.347       .  A
C37          C38   1.380       .  A
C37          H40   1.082       .  S
C38          C39   1.378       .  A
C38        C1851   1.436       .  S
C39          H41   1.082       .  S
N42          N43   1.324       .  A
N42          C46   1.346   1_655  A
N43          C44   1.345   1_655  A
C44          C45   1.378       .  A
C44          H47   1.082       .  S
C45          C46   1.380       .  A
C45        C1849   1.437       .  S
C46          H48   1.082       .  S
N49          N50   1.325       .  A
N49          C53   1.349       .  A
N49         Cu57   2.089       .  S
N50          C51   1.346       .  A
N50         Cu56   2.081       .  S
C51          C52   1.380       .  A
C51          H54   1.082       .  S
C52          C53   1.383       .  A
C52        C1857   1.444       .  S
C53          H55   1.082       .  S
Cu56         N59   2.080       .  S
Cu57         N67   2.089       .  S
Cu58         N60   2.063       .  S
Cu58         N66   2.064       .  S
N59          N60   1.322       .  A
N59          C63   1.347       .  A
N60          C61   1.345       .  A
C61          C62   1.379       .  A
C61          H64   1.082       .  S
C62          C63   1.382       .  A
C62        C1843   1.438       .  S
C63          H65   1.082       .  S
N66          N67   1.324       .  A
N66          C70   1.343       .  A
N67          C68   1.348       .  A
C68          C69   1.383       .  A
C68          H71   1.082       .  S
C69          C70   1.376       .  A
C69        C1850   1.437       .  S
C70          H72   1.082       .  S
N73          N74   1.323       .  A
N73          C77   1.346   1_655  A
N73         Cu81   2.079       .  S
N74          C75   1.345   1_655  A
N74         Cu80   2.069       .  S
C75          C76   1.379       .  A
C75          H78   1.082       .  S
C76          C77   1.380       .  A
C76        C1839   1.437       .  S
C77          H79   1.082       .  S
Cu80         N83   2.069       .  S
Cu81         N91   2.079       .  S
Cu82         N84   2.079       .  S
Cu82         N90   2.079       .  S
N83          N84   1.324       .  A
N83          C87   1.345       .  A
N84          C85   1.345       .  A
C85          C86   1.379       .  A
C85          H88   1.082       .  S
C86          C87   1.378       .  A
C86        C1841   1.435       .  S
C87          H89   1.082       .  S
N90          N91   1.323       .  A
N90          C94   1.347       .  A
N91          C92   1.347       .  A
C92          C93   1.381       .  A
C92          H95   1.082       .  S
C93          C94   1.381       .  A
C93        C1838   1.442       .  S
C94          H96   1.082       .  S
N97          N98   1.323       .  A
N97         C101   1.346       .  A
N97        Cu105   2.077       .  S
N98          C99   1.344       .  A
N98        Cu104   2.068       .  S
C99         C100   1.378       .  A
C99         H102   1.082       .  S
C100        C101   1.380       .  A
C100       C1831   1.436       .  S
C101        H103   1.082       .  S
Cu104       N107   2.068   1_565  S
Cu105       N115   2.077   1_565  S
Cu106       N108   2.077       .  S
Cu106       N114   2.077       .  S
N107        N108   1.323       .  A
N107        C111   1.345       .  A
N108        C109   1.345       .  A
C109        C110   1.380       .  A
C109        H112   1.082       .  S
C110        C111   1.378       .  A
C110       C1834   1.435       .  S
C111        H113   1.082   1_545  S
N114        N115   1.323       .  A
N114        C118   1.346       .  A
N115        C116   1.347       .  A
C116        C117   1.380       .  A
C116        H119   1.082       .  S
C117        C118   1.380       .  A
C117       C1827   1.440       .  S
C118        H120   1.082       .  S
N121        N122   1.324       .  A
N121        C125   1.347       .  A
N121       Cu129   2.078       .  S
N122        C123   1.344       .  A
N122       Cu128   2.072       .  S
C123        C124   1.378       .  A
C123        H126   1.082       .  S
C124        C125   1.380       .  A
C124       C1832   1.436       .  S
C125        H127   1.082       .  S
Cu128       N131   2.072       .  S
Cu129       N139   2.078       .  S
Cu130       N132   2.071       .  S
Cu130       N138   2.071       .  S
N131        N132   1.322       .  A
N131        C135   1.346       .  A
N132        C133   1.345       .  A
C133        C134   1.380       .  A
C133        H136   1.082       .  S
C134        C135   1.380       .  A
C134       C1825   1.438       .  S
C135        H137   1.082       .  S
N138        N139   1.323       .  A
N138        C142   1.344       .  A
N139        C140   1.347       .  A
C140        C141   1.381       .  A
C140        H143   1.082       .  S
C141        C142   1.378       .  A
C141       C1840   1.437       .  S
C142        H144   1.082       .  S
N145        C150   1.353       .  A
N145        C149   1.354       .  A
N145        H177   1.038       .  S
N146        C153   1.351       .  A
N146        C154   1.351       .  A
N147        C152   1.353       .  A
N147        C151   1.352       .  A
N147        H178   1.037       .  S
N148        C155   1.352       .  A
N148        C156   1.352       .  A
C149        C157   1.387       .  A
C149        C165   1.414       .  A
C150        C166   1.414       .  A
C150        C158   1.387       .  A
C151        C159   1.387       .  A
C151        C168   1.413       .  A
C152        C167   1.414       .  A
C152        C160   1.388       .  A
C153        C165   1.411       .  A
C153        C161   1.386       .  A
C154        C168   1.412       .  A
C154        C162   1.387       .  A
C155        C163   1.386       .  A
C155        C166   1.413       .  A
C156        C164   1.387       .  A
C156        C167   1.413       .  A
C157        C158   1.375       .  A
C157        H169   1.082       .  S
C158        H170   1.082       .  S
C159        C160   1.376       .  A
C159        H171   1.082       .  S
C160        H172   1.082       .  S
C161        C162   1.373       .  A
C161        H173   1.082       .  S
C162        H174   1.082       .  S
C163        C164   1.374       .  A
C163        H175   1.082       .  S
C164        H176   1.082       .  S
C165        C192   1.479       .  S
C166        C264   1.479       .  S
C167       C1823   1.453       .  S
C168       C1833   1.449       .  S
N179        N180   1.322       .  A
N179        C183   1.345       .  A
N179       Cu187   2.072       .  S
N180        C181   1.346       .  A
N180       Cu186   2.072       .  S
C181        C182   1.382       .  A
C181        H184   1.082       .  S
C182        C183   1.381       .  A
C182        C223   1.479       .  S
C183        H185   1.082       .  S
Cu186       N189   2.072       .  S
Cu187       N197   2.073       .  S
Cu188       N190   2.083       .  S
Cu188       N196   2.083       .  S
N189        N190   1.324       .  A
N189        C193   1.344       .  A
N190        C191   1.347       .  A
C191        C192   1.382       .  A
C191        H194   1.082       .  S
C192        C193   1.379       .  A
C193        H195   1.082       .  S
N196        N197   1.323       .  A
N196        C200   1.347       .  A
N197        C198   1.346       .  A
C198        C199   1.379       .  A
C198        H201   1.082       .  S
C199        C200   1.382       .  A
C199       C1821   1.440       .  S
C200        H202   1.082       .  S
N203        C208   1.354       .  A
N203        C207   1.354       .  A
N203        H235   1.037       .  S
N204        C211   1.352       .  A
N204        C212   1.353       .  A
N205        C210   1.354       .  A
N205        C209   1.354       .  A
N205        H236   1.037       .  S
N206        C213   1.352       .  A
N206        C214   1.353       .  A
C207        C215   1.388       .  A
C207        C223   1.415       .  A
C208        C224   1.415       .  A
C208        C216   1.387       .  A
C209        C217   1.387       .  A
C209        C226   1.416       .  A
C210        C225   1.416       .  A
C210        C218   1.387       .  A
C211        C223   1.414       .  A
C211        C219   1.386       .  A
C212        C226   1.415       .  A
C212        C220   1.387       .  A
C213        C221   1.386       .  A
C213        C224   1.413       .  A
C214        C222   1.387       .  A
C214        C225   1.415       .  A
C215        C216   1.374       .  A
C215        H227   1.082       .  S
C216        H228   1.082       .  S
C217        C218   1.377       .  A
C217        H229   1.082       .  S
C218        H230   1.082       .  S
C219        C220   1.372       .  A
C219        H231   1.082       .  S
C220        H232   1.082       .  S
C221        C222   1.372       .  A
C221        H233   1.082       .  S
C222        H234   1.082       .  S
C224        C240   1.481       .  S
C225       C1819   1.455       .  S
C226       C1860   1.456       .  S
N237        N238   1.323       .  A
N237        C241   1.345       .  A
N237       Cu245   2.074       .  S
N238        C239   1.346       .  A
N238       Cu244   2.075       .  S
C239        C240   1.383       .  A
C239        H242   1.082       .  S
C240        C241   1.381       .  A
C241        H243   1.082       .  S
Cu244       N247   2.075       .  S
Cu245       N255   2.074       .  S
Cu246       N248   2.079       .  S
Cu246       N254   2.080       .  S
N247        N248   1.324       .  A
N247        C251   1.345       .  A
N248        C249   1.347       .  A
C249        C250   1.382       .  A
C249        H252   1.082       .  S
C250        C251   1.380       .  A
C250        C306   1.478       .  S
C251        H253   1.082       .  S
N254        N255   1.323       .  A
N254        C258   1.347       .  A
N255        C256   1.346       .  A
C256        C257   1.379       .  A
C256        H259   1.082       .  S
C257        C258   1.381       .  A
C257       C1818   1.439       .  S
C258        H260   1.082       .  S
N261        N262   1.323       .  A
N261        C265   1.346       .  A
N261       Cu269   2.075       .  S
N262        C263   1.345       .  A
N262       Cu268   2.073       .  S
C263        C264   1.381       .  A
C263        H266   1.082       .  S
C264        C265   1.382       .  A
C265        H267   1.082       .  S
Cu268       N271   2.073       .  S
Cu269       N279   2.075       .  S
Cu270       N272   2.072       .  S
Cu270       N278   2.072       .  S
N271        N272   1.323       .  A
N271        C275   1.344       .  A
N272        C273   1.346       .  A
C273        C274   1.381       .  A
C273        H276   1.082       .  S
C274        C275   1.380       .  A
C274        C305   1.477       .  S
C275        H277   1.082       .  S
N278        N279   1.323       .  A
N278        C282   1.345       .  A
N279        C280   1.346       .  A
C280        C281   1.380       .  A
C280        H283   1.082       .  S
C281        C282   1.379       .  A
C281       C1815   1.437       .  S
C282        H284   1.082       .  S
N285        C290   1.353       .  A
N285        C289   1.352       .  A
N285        H317   1.037       .  S
N286        C293   1.351       .  A
N286        C294   1.352       .  A
N287        C292   1.352       .  A
N287        C291   1.353       .  A
N287        H318   1.036       .  S
N288        C295   1.352       .  A
N288        C296   1.351       .  A
C289        C297   1.387       .  A
C289        C305   1.414       .  A
C290        C306   1.413       .  A
C290        C298   1.387       .  A
C291        C299   1.388       .  A
C291        C308   1.414       .  A
C292        C307   1.414       .  A
C292        C300   1.388       .  A
C293        C305   1.412       .  A
C293        C301   1.386       .  A
C294        C308   1.412       .  A
C294        C302   1.387       .  A
C295        C303   1.386       .  A
C295        C306   1.412       .  A
C296        C304   1.387       .  A
C296        C307   1.413       .  A
C297        C298   1.375       .  A
C297        H309   1.082       .  S
C298        H310   1.082       .  S
C299        C300   1.376       .  A
C299        H311   1.082       .  S
C300        H312   1.082       .  S
C301        C302   1.373       .  A
C301        H313   1.082       .  S
C302        H314   1.082       .  S
C303        C304   1.373       .  A
C303        H315   1.082       .  S
C304        H316   1.082       .  S
C307       C1842   1.449       .  S
C308       C1852   1.450       .  S
N319        N320   1.323       .  A
N319        C323   1.347       .  A
N319       Cu327   2.076   1_545  S
N320        C321   1.346       .  A
N320       Cu326   2.078       .  S
C321        C322   1.381       .  A
C321        H324   1.082       .  S
C322        C323   1.381       .  A
C322       C1812   1.442       .  S
C323        H325   1.082   1_545  S
Cu326       N329   2.077       .  S
Cu327       N337   2.076       .  S
Cu328       N330   2.079   1_565  S
Cu328       N336   2.079       .  S
N329        N330   1.323       .  A
N329        C333   1.345       .  A
N330        C331   1.347       .  A
C331        C332   1.381       .  A
C331        H334   1.082   1_545  S
C332        C333   1.379       .  A
C332       C1824   1.439       .  S
C333        H335   1.082       .  S
N336        N337   1.324       .  A
N336        C340   1.346       .  A
N337        C338   1.346       .  A
C338        C339   1.379       .  A
C338        H341   1.082       .  S
C339        C340   1.380       .  A
C339       C1813   1.437       .  S
C340        H342   1.082       .  S
N343        N344   1.325       .  A
N343        C347   1.348       .  A
N343       Cu351   2.083       .  S
N344        C345   1.347       .  A
N344       Cu350   2.087       .  S
C345        C346   1.381       .  A
C345        H348   1.082       .  S
C346        C347   1.381       .  A
C346       C1807   1.442       .  S
C347        H349   1.082       .  S
Cu350       N353   2.086       .  S
Cu351       N361   2.083       .  S
Cu352       N354   2.071       .  S
Cu352       N360   2.070       .  S
N353        N354   1.323       .  A
N353        C357   1.349       .  A
N354        C355   1.345       .  A
C355        C356   1.379       .  A
C355        H358   1.082       .  S
C356        C357   1.383       .  A
C356       C1820   1.442       .  S
C357        H359   1.082       .  S
N360        N361   1.323       .  A
N360        C364   1.344       .  A
N361        C362   1.348       .  A
C362        C363   1.382       .  A
C362        H365   1.082       .  S
C363        C364   1.378       .  A
C363       C1803   1.440       .  S
C364        H366   1.082       .  S
N367        N368   1.325       .  A
N367        C371   1.349       .  A
N367       Cu375   2.087       .  S
N368        C369   1.345       .  A
N368       Cu374   2.080       .  S
C369        C370   1.379       .  A
C369        H372   1.082       .  S
C370        C371   1.383       .  A
C370       C1808   1.442       .  S
C371        H373   1.082       .  S
Cu374       N377   2.080       .  S
Cu375       N385   2.087       .  S
Cu376       N378   2.065       .  S
Cu376       N384   2.065       .  S
N377        N378   1.322       .  A
N377        C381   1.347       .  A
N378        C379   1.345       .  A
C379        C380   1.379       .  A
C379        H382   1.082       .  S
C380        C381   1.382       .  A
C380       C1802   1.439       .  S
C381        H383   1.082       .  S
N384        N385   1.324       .  A
N384        C388   1.343       .  A
N385        C386   1.348       .  A
C386        C387   1.382       .  A
C386        H389   1.082       .  S
C387        C388   1.376       .  A
C387       C1814   1.437       .  S
C388        H390   1.082       .  S
O391       Cu399   2.013       .  S
O391        C401   1.277       .  A
O392       Cu399   2.014       .  S
O392        C402   1.277       .  A
O393       Cu399   2.010       .  S
O393        C403   1.276       .  A
O394       Cu399   2.012       .  S
O394        C404   1.277       .  A
O395       Cu400   2.016       .  S
O395        C404   1.277       .  A
O396       Cu400   2.016       .  S
O396        C403   1.277       .  A
O397       Cu400   2.018       .  S
O397        C402   1.277       .  A
O398       Cu400   2.018       .  S
O398        C401   1.277       .  A
Cu399      Cu400   2.378       .  S
C401       C1793   1.439       .  S
C402       C1835   1.440       .  S
C403       C1797   1.438       .  S
C404       C1806   1.438       .  S
O405       Cu413   2.014       .  S
O405        C415   1.277       .  A
O406       Cu413   2.012       .  S
O406        C416   1.277       .  A
O407       Cu413   2.011       .  S
O407        C417   1.276       .  A
O408       Cu413   2.011       .  S
O408        C418   1.276       .  A
O409       Cu414   2.019       .  S
O409        C418   1.278       .  A
O410       Cu414   2.020       .  S
O410        C417   1.278       .  A
O411       Cu414   2.022       .  S
O411        C416   1.278       .  A
O412       Cu414   2.022       .  S
O412        C415   1.278       .  A
Cu413      Cu414   2.378       .  S
C415       C1792   1.442       .  S
C416       C1809   1.441       .  S
C417       C1785   1.440       .  S
C418       C1848   1.439       .  S
O419       Cu427   2.008       .  S
O419        C429   1.276       .  A
O420       Cu427   2.009       .  S
O420        C430   1.276       .  A
O421       Cu427   2.012       .  S
O421        C431   1.277       .  A
O422       Cu427   2.012       .  S
O422        C432   1.277       .  A
O423       Cu428   2.016       .  S
O423        C432   1.277       .  A
O424       Cu428   2.016       .  S
O424        C431   1.277       .  A
O425       Cu428   2.014       .  S
O425        C430   1.277       .  A
O426       Cu428   2.014       .  S
O426        C429   1.277       .  A
Cu427      Cu428   2.379       .  S
C429       C1780   1.436       .  S
C430       C1856   1.437       .  S
C431       C1781   1.439       .  S
C432       C1830   1.438       .  S
N433        N434   1.324       .  A
N433        C437   1.348       .  A
N433       Cu441   2.085       .  S
N434        C435   1.347       .  A
N434       Cu440   2.084       .  S
C435        C436   1.381       .  A
C435        H438   1.082       .  S
C436        C437   1.382       .  A
C436       C1773   1.444       .  S
C437        H439   1.082       .  S
Cu440       N443   2.083       .  S
Cu441       N451   2.085       .  S
Cu442       N444   2.074       .  S
Cu442       N450   2.074       .  S
N443        N444   1.323       .  A
N443        C447   1.348       .  A
N444        C445   1.345       .  A
C445        C446   1.379       .  A
C445        H448   1.082       .  S
C446        C447   1.382       .  A
C446       C1775   1.440       .  S
C447        H449   1.082       .  S
N450        N451   1.323       .  A
N450        C454   1.345       .  A
N451        C452   1.348       .  A
C452        C453   1.382       .  A
C452        H455   1.082       .  S
C453        C454   1.379       .  A
C453       C1784   1.441       .  S
C454        H456   1.082       .  S
N457        N458   1.323       .  A
N457        C461   1.348       .  A
N457       Cu465   2.083       .  S
N458        C459   1.346       .  A
N458       Cu464   2.073       .  S
C459        C460   1.380       .  A
C459        H462   1.082       .  S
C460        C461   1.383       .  A
C460       C1789   1.443       .  S
C461        H463   1.082       .  S
Cu464       N467   2.072       .  S
Cu465       N475   2.083       .  S
Cu466       N468   2.077       .  S
Cu466       N474   2.078       .  S
N467        N468   1.323       .  A
N467        C471   1.344       .  A
N468        C469   1.347       .  A
C469        C470   1.380       .  A
C469        H472   1.082       .  S
C470        C471   1.378       .  A
C470       C1771   1.436       .  S
C471        H473   1.082       .  S
N474        N475   1.324       .  A
N474        C478   1.346   1_655  A
N475        C476   1.347   1_655  A
C476        C477   1.380       .  A
C476        H479   1.082       .  S
C477        C478   1.380       .  A
C477       C1769   1.440       .  S
C478        H480   1.082       .  S
N481        N482   1.325       .  A
N481        C485   1.349       .  A
N481       Cu489   2.093       .  S
N482        C483   1.346       .  A
N482       Cu488   2.079       .  S
C483        C484   1.379       .  A
C483        H486   1.082       .  S
C484        C485   1.383       .  A
C484       C1774   1.443       .  S
C485        H487   1.082       .  S
Cu488       N491   2.078       .  S
Cu489       N499   2.092       .  S
Cu490       N492   2.062       .  S
Cu490       N498   2.063       .  S
N491        N492   1.321       .  A
N491        C495   1.347       .  A
N492        C493   1.344       .  A
C493        C494   1.378       .  A
C493        H496   1.082       .  S
C494        C495   1.382       .  A
C494       C1768   1.437       .  S
C495        H497   1.082       .  S
N498        N499   1.323       .  A
N498        C502   1.343       .  A
N499        C500   1.349       .  A
C500        C501   1.384       .  A
C500        H503   1.082       .  S
C501        C502   1.376       .  A
C501       C1770   1.440       .  S
C502        H504   1.082       .  S
N505        C510   1.353       .  A
N505        C509   1.353       .  A
N505        H537   1.037       .  S
N506        C513   1.352       .  A
N506        C514   1.352       .  A
N507        C512   1.353       .  A
N507        C511   1.353       .  A
N507        H538   1.037       .  S
N508        C515   1.352       .  A
N508        C516   1.352       .  A
C509        C517   1.387       .  A
C509        C525   1.415       .  A
C510        C526   1.415       .  A
C510        C518   1.387       .  A
C511        C519   1.387       .  A
C511        C528   1.414       .  A
C512        C527   1.414       .  A
C512        C520   1.388       .  A
C513        C525   1.413       .  A
C513        C521   1.386       .  A
C514        C528   1.413       .  A
C514        C522   1.387       .  A
C515        C523   1.386       .  A
C515        C526   1.414       .  A
C516        C524   1.387       .  A
C516        C527   1.414       .  A
C517        C518   1.375       .  A
C517        H529   1.082       .  S
C518        H530   1.082       .  S
C519        C520   1.376       .  A
C519        H531   1.082       .  S
C520        H532   1.082       .  S
C521        C522   1.373       .  A
C521        H533   1.082       .  S
C522        H534   1.082       .  S
C523        C524   1.373       .  A
C523        H535   1.082       .  S
C524        H536   1.082       .  S
C525        C740   1.480       .  S
C526        C542   1.480       .  S
C527       C1765   1.452       .  S
C528       C1763   1.452       .  S
N539        N540   1.323       .  A
N539        C543   1.346       .  A
N539       Cu547   2.076       .  S
N540        C541   1.345       .  A
N540       Cu546   2.073       .  S
C541        C542   1.381       .  A
C541        H544   1.082       .  S
C542        C543   1.382       .  A
C543        H545   1.082       .  S
Cu546       N549   2.072       .  S
Cu547       N557   2.076       .  S
Cu548       N550   2.072       .  S
Cu548       N556   2.072       .  S
N549        N550   1.323       .  A
N549        C553   1.344       .  A
N550        C551   1.346       .  A
C551        C552   1.381       .  A
C551        H554   1.082       .  S
C552        C553   1.380       .  A
C552        C656   1.478       .  S
C553        H555   1.082       .  S
N556        N557   1.323       .  A
N556        C560   1.345   1_556  A
N557        C558   1.346   1_556  A
C558        C559   1.380       .  A
C558        H561   1.082       .  S
C559        C560   1.379       .  A
C559       C1762   1.437       .  S
C560        H562   1.082       .  S
N563        N564   1.323       .  A
N563        C567   1.347       .  A
N563       Cu571   2.080   1_545  S
N564        C565   1.346       .  A
N564       Cu570   2.075       .  S
C565        C566   1.380       .  A
C565        H568   1.082       .  S
C566        C567   1.382       .  A
C566       C1788   1.441       .  S
C567        H569   1.082   1_545  S
Cu570       N573   2.075       .  S
Cu571       N581   2.080       .  S
Cu572       N574   2.080   1_565  S
Cu572       N580   2.081       .  S
N573        N574   1.323       .  A
N573        C577   1.345       .  A
N574        C575   1.347       .  A
C575        C576   1.381       .  A
C575        H578   1.082   1_545  S
C576        C577   1.379       .  A
C576       C1766   1.438       .  S
C577        H579   1.082       .  S
N580        N581   1.324       .  A
N580        C584   1.347       .  A
N581        C582   1.347       .  A
C582        C583   1.380       .  A
C582        H585   1.082       .  S
C583        C584   1.381       .  A
C583       C1759   1.441       .  S
C584        H586   1.082       .  S
N587        N588   1.324       .  A
N587        C591   1.346       .  A
N587       Cu595   2.080       .  S
N588        C589   1.347       .  A
N588       Cu594   2.082       .  S
C589        C590   1.381       .  A
C589        H592   1.082       .  S
C590        C591   1.380       .  A
C590       C1756   1.441       .  S
C591        H593   1.082       .  S
Cu594       N597   2.081       .  S
Cu595       N605   2.080       .  S
Cu596       N598   2.070       .  S
Cu596       N604   2.070       .  S
N597        N598   1.323       .  A
N597        C601   1.347       .  A
N598        C599   1.344       .  A
C599        C600   1.378       .  A
C599        H602   1.082       .  S
C600        C601   1.381       .  A
C600       C1757   1.438       .  S
C601        H603   1.082       .  S
N604        N605   1.323       .  A
N604        C608   1.345       .  A
N605        C606   1.348       .  A
C606        C607   1.382       .  A
C606        H609   1.082       .  S
C607        C608   1.379       .  A
C607       C1796   1.440       .  S
C608        H610   1.082       .  S
N611        N612   1.325       .  A
N611        C615   1.349       .  A
N611       Cu619   2.091       .  S
N612        C613   1.344       .  A
N612       Cu618   2.075       .  S
C613        C614   1.377       .  A
C613        H616   1.082       .  S
C614        C615   1.383       .  A
C614       C1755   1.441       .  S
C615        H617   1.082       .  S
Cu618       N621   2.075       .  S
Cu619       N629   2.091       .  S
Cu620       N622   2.067       .  S
Cu620       N628   2.068       .  S
N621        N622   1.321       .  A
N621        C625   1.347       .  A
N622        C623   1.345       .  A
C623        C624   1.379       .  A
C623        H626   1.082       .  S
C624        C625   1.382       .  A
C624       C1753   1.439       .  S
C625        H627   1.082       .  S
N628        N629   1.324       .  A
N628        C632   1.344       .  A
N629        C630   1.349       .  A
C630        C631   1.384       .  A
C630        H633   1.082       .  S
C631        C632   1.377       .  A
C631       C1760   1.440       .  S
C632        H634   1.082       .  S
N635        C640   1.352       .  A
N635        C639   1.353       .  A
N635        H667   1.036       .  S
N636        C643   1.352       .  A
N636        C644   1.352       .  A
N637        C642   1.353       .  A
N637        C641   1.353       .  A
N637        H668   1.037       .  S
N638        C645   1.351       .  A
N638        C646   1.352       .  A
C639        C647   1.387       .  A
C639        C655   1.414       .  A
C640        C656   1.414       .  A
C640        C648   1.387       .  A
C641        C649   1.387       .  A
C641        C658   1.413       .  A
C642        C657   1.413       .  A
C642        C650   1.388       .  A
C643        C655   1.413       .  A
C643        C651   1.386       .  A
C644        C658   1.412       .  A
C644        C652   1.387       .  A
C645        C653   1.387       .  A
C645        C656   1.413       .  A
C646        C654   1.387       .  A
C646        C657   1.412       .  A
C647        C648   1.375       .  A
C647        H659   1.082       .  S
C648        H660   1.082       .  S
C649        C650   1.375       .  A
C649        H661   1.082       .  S
C650        H662   1.082       .  S
C651        C652   1.373       .  A
C651        H663   1.082       .  S
C652        H664   1.082       .  S
C653        C654   1.373       .  A
C653        H665   1.082       .  S
C654        H666   1.082       .  S
C655        C682   1.478       .  S
C657       C1772   1.449       .  S
C658       C1751   1.449       .  S
N669        N670   1.323       .  A
N669        C673   1.345       .  A
N669       Cu677   2.072       .  S
N670        C671   1.346       .  A
N670       Cu676   2.075       .  S
C671        C672   1.383       .  A
C671        H674   1.082       .  S
C672        C673   1.381       .  A
C672        C714   1.481       .  S
C673        H675   1.082       .  S
Cu676       N679   2.075       .  S
Cu677       N687   2.073       .  S
Cu678       N680   2.076       .  S
Cu678       N686   2.076       .  S
N679        N680   1.323       .  A
N679        C683   1.345       .  A
N680        C681   1.346       .  A
C681        C682   1.381       .  A
C681        H684   1.082       .  S
C682        C683   1.380       .  A
C683        H685   1.082       .  S
N686        N687   1.323       .  A
N686        C690   1.346   1_556  A
N687        C688   1.345       .  A
C688        C689   1.379   1_556  A
C688        H691   1.082   1_556  S
C689        C690   1.380       .  A
C689       C1749   1.438       .  S
C690        H692   1.082       .  S
N693        C698   1.354       .  A
N693        C697   1.354       .  A
N693        H725   1.037       .  S
N694        C701   1.352       .  A
N694        C702   1.353       .  A
N695        C700   1.353       .  A
N695        C699   1.353       .  A
N695        H726   1.035       .  S
N696        C703   1.352       .  A
N696        C704   1.352       .  A
C697        C705   1.387       .  A
C697        C713   1.416       .  A
C698        C714   1.416       .  A
C698        C706   1.387       .  A
C699        C707   1.388       .  A
C699        C716   1.415       .  A
C700        C715   1.415       .  A
C700        C708   1.388       .  A
C701        C713   1.414       .  A
C701        C709   1.386       .  A
C702        C716   1.415       .  A
C702        C710   1.387       .  A
C703        C711   1.386       .  A
C703        C714   1.413       .  A
C704        C712   1.387       .  A
C704        C715   1.414       .  A
C705        C706   1.374       .  A
C705        H717   1.082       .  S
C706        H718   1.082       .  S
C707        C708   1.376       .  A
C707        H719   1.082       .  S
C708        H720   1.082       .  S
C709        C710   1.372       .  A
C709        H721   1.082       .  S
C710        H722   1.082       .  S
C711        C712   1.372       .  A
C711        H723   1.082       .  S
C712        H724   1.082       .  S
C713        C730   1.481       .  S
C715       C1758   1.452       .  S
C716       C1776   1.454       .  S
N727        N728   1.322       .  A
N727        C731   1.345       .  A
N727       Cu735   2.074       .  S
N728        C729   1.346       .  A
N728       Cu734   2.076       .  S
C729        C730   1.383       .  A
C729        H732   1.082       .  S
C730        C731   1.382       .  A
C731        H733   1.082       .  S
Cu734       N737   2.076       .  S
Cu735       N745   2.074       .  S
Cu736       N738   2.081       .  S
Cu736       N744   2.081       .  S
N737        N738   1.324       .  A
N737        C741   1.345       .  A
N738        C739   1.347       .  A
C739        C740   1.382       .  A
C739        H742   1.082       .  S
C740        C741   1.380       .  A
C741        H743   1.082       .  S
N744        N745   1.323       .  A
N744        C748   1.347   1_556  A
N745        C746   1.346       .  A
C746        C747   1.379   1_556  A
C746        H749   1.082   1_556  S
C747        C748   1.381       .  A
C747       C1748   1.440       .  S
C748        H750   1.082       .  S
N751        N752   1.323       .  A
N751        C755   1.346   1_655  A
N751       Cu759   2.076       .  S
N752        C753   1.345   1_655  A
N752       Cu758   2.070       .  S
C753        C754   1.379       .  A
C753        H756   1.082       .  S
C754        C755   1.380       .  A
C754       C1745   1.437       .  S
C755        H757   1.082       .  S
Cu758       N761   2.070       .  S
Cu759       N769   2.076       .  S
Cu760       N762   2.077       .  S
Cu760       N768   2.077       .  S
N761        N762   1.323       .  A
N761        C765   1.345       .  A
N762        C763   1.345       .  A
C763        C764   1.380       .  A
C763        H766   1.082       .  S
C764        C765   1.379       .  A
C764       C1752   1.436       .  S
C765        H767   1.082       .  S
N768        N769   1.323       .  A
N768        C772   1.346       .  A
N769        C770   1.346       .  A
C770        C771   1.380       .  A
C770        H773   1.082       .  S
C771        C772   1.380       .  A
C771       C1800   1.439       .  S
C772        H774   1.082       .  S
N775        N776   1.324       .  A
N775        C779   1.346       .  A
N775       Cu783   2.073       .  S
N776        C777   1.345       .  A
N776       Cu782   2.076       .  S
C777        C778   1.379       .  A
C777        H780   1.082       .  S
C778        C779   1.379       .  A
C778       C1743   1.437       .  S
C779        H781   1.082       .  S
Cu782       N785   2.076   1_565  S
Cu783       N793   2.072   1_565  S
Cu784       N786   2.077       .  S
Cu784       N792   2.077       .  S
N785        N786   1.323       .  A
N785        C789   1.347       .  A
N786        C787   1.346       .  A
C787        C788   1.380       .  A
C787        H790   1.082       .  S
C788        C789   1.380       .  A
C788       C1764   1.439       .  S
C789        H791   1.082   1_545  S
N792        N793   1.323       .  A
N792        C796   1.346       .  A
N793        C794   1.346       .  A
C794        C795   1.379       .  A
C794        H797   1.082       .  S
C795        C796   1.380       .  A
C795       C1777   1.438       .  S
C796        H798   1.082       .  S
N799        N800   1.324       .  A
N799        C803   1.347       .  A
N799       Cu807   2.078       .  S
N800        C801   1.344       .  A
N800       Cu806   2.073       .  S
C801        C802   1.378       .  A
C801        H804   1.082       .  S
C802        C803   1.380       .  A
C802       C1744   1.436       .  S
C803        H805   1.082       .  S
Cu806       N809   2.073       .  S
Cu807       N817   2.077       .  S
Cu808       N810   2.072       .  S
Cu808       N816   2.071       .  S
N809        N810   1.322       .  A
N809        C813   1.346       .  A
N810        C811   1.345       .  A
C811        C812   1.380       .  A
C811        H814   1.082       .  S
C812        C813   1.380       .  A
C812       C1741   1.439       .  S
C813        H815   1.082       .  S
N816        N817   1.323       .  A
N816        C820   1.344       .  A
N817        C818   1.347       .  A
C818        C819   1.381       .  A
C818        H821   1.082       .  S
C819        C820   1.378       .  A
C819       C1746   1.437       .  S
C820        H822   1.082       .  S
N823        N824   1.323       .  A
N823        C827   1.347       .  A
N823       Cu831   2.076       .  S
N824        C825   1.345       .  A
N824       Cu830   2.078       .  S
C825        C826   1.380       .  A
C825        H828   1.082       .  S
C826        C827   1.380       .  A
C826       C1738   1.439       .  S
C827        H829   1.082       .  S
Cu830       N833   2.078   1_655  S
Cu831       N841   2.076   1_655  S
Cu832       N834   2.081       .  S
Cu832       N840   2.081       .  S
N833        N834   1.323       .  A
N833        C837   1.347       .  A
N834        C835   1.347       .  A
C835        C836   1.381       .  A
C835        H838   1.082       .  S
C836        C837   1.381       .  A
C836       C1740   1.441       .  S
C837        H839   1.082       .  S
N840        N841   1.324       .  A
N840        C844   1.346       .  A
N841        C842   1.346       .  A
C842        C843   1.380       .  A
C842        H845   1.082       .  S
C843        C844   1.380       .  A
C843       C1733   1.440       .  S
C844        H846   1.082       .  S
N847        N848   1.324       .  A
N847        C851   1.347       .  A
N847       Cu855   2.079       .  S
N848        C849   1.345       .  A
N848       Cu854   2.078       .  S
C849        C850   1.379       .  A
C849        H852   1.082       .  S
C850        C851   1.381       .  A
C850       C1729   1.439   1_565  S
C851        H853   1.082       .  S
Cu854       N857   2.077       .  S
Cu855       N865   2.078       .  S
Cu856       N858   2.074       .  S
Cu856       N864   2.074       .  S
N857        N858   1.323       .  A
N857        C861   1.347       .  A
N858        C859   1.345       .  A
C859        C860   1.379       .  A
C859        H862   1.082       .  S
C860        C861   1.381       .  A
C860       C1732   1.438       .  S
C861        H863   1.082       .  S
N864        N865   1.323       .  A
N864        C868   1.346       .  A
N865        C866   1.346       .  A
C866        C867   1.381       .  A
C866        H869   1.082       .  S
C867        C868   1.380       .  A
C867       C1725   1.440       .  S
C868        H870   1.082       .  S
N871        N872   1.324       .  A
N871        C875   1.344       .  A
N871       Cu879   2.072       .  S
N872        C873   1.347       .  A
N872       Cu878   2.081       .  S
C873        C874   1.381       .  A
C873        H876   1.082       .  S
C874        C875   1.378       .  A
C874       C1737   1.439       .  S
C875        H877   1.082       .  S
Cu878       N881   2.081       .  S
Cu879       N889   2.072       .  S
Cu880       N882   2.073       .  S
Cu880       N888   2.072       .  S
N881        N882   1.324       .  A
N881        C885   1.347       .  A
N882        C883   1.345       .  A
C883        C884   1.379       .  A
C883        H886   1.082       .  S
C884        C885   1.381       .  A
C884       C1730   1.439       .  S
C885        H887   1.082       .  S
N888        N889   1.323       .  A
N888        C892   1.345       .  A
N889        C890   1.345       .  A
C890        C891   1.380       .  A
C890        H893   1.082       .  S
C891        C892   1.379       .  A
C891       C1816   1.437       .  S
C892        H894   1.082       .  S
N895        N896   1.325       .  A
N895        C899   1.348       .  A
N895       Cu903   2.084       .  S
N896        C897   1.347       .  A
N896       Cu902   2.089       .  S
C897        C898   1.382       .  A
C897        H900   1.082       .  S
C898        C899   1.381       .  A
C898       C1722   1.444       .  S
C899        H901   1.082       .  S
Cu902       N905   2.088       .  S
Cu903       N913   2.084       .  S
Cu904       N906   2.069       .  S
Cu904       N912   2.069       .  S
N905        N906   1.323       .  A
N905        C909   1.349       .  A
N906        C907   1.345       .  A
C907        C908   1.379       .  A
C907        H910   1.082       .  S
C908        C909   1.384       .  A
C908       C1724   1.442       .  S
C909        H911   1.082       .  S
N912        N913   1.324       .  A
N912        C916   1.344       .  A
N913        C914   1.348       .  A
C914        C915   1.383       .  A
C914        H917   1.082       .  S
C915        C916   1.377       .  A
C915       C1720   1.439       .  S
C916        H918   1.082       .  S
N919        N920   1.323       .  A
N919        C923   1.348       .  A
N919       Cu927   2.086       .  S
N920        C921   1.346       .  A
N920       Cu926   2.075       .  S
C921        C922   1.380       .  A
C921        H924   1.082       .  S
C922        C923   1.382       .  A
C922       C1712   1.442       .  S
C923        H925   1.082       .  S
Cu926       N929   2.074       .  S
Cu927       N937   2.086       .  S
Cu928       N930   2.079       .  S
Cu928       N936   2.080       .  S
N929        N930   1.324       .  A
N929        C933   1.345       .  A
N930        C931   1.347       .  A
C931        C932   1.380       .  A
C931        H934   1.082       .  S
C932        C933   1.379       .  A
C932       C1715   1.438       .  S
C933        H935   1.082       .  S
N936        N937   1.324       .  A
N936        C940   1.347       .  A
N937        C938   1.348       .  A
C938        C939   1.381   1_565  A
C938        H941   1.082   1_565  S
C939        C940   1.381   1_545  A
C939       C1713   1.443       .  S
C940        H942   1.082   1_565  S
N943        N944   1.324       .  A
N943        C947   1.350       .  A
N943       Cu951   2.093       .  S
N944        C945   1.344       .  A
N944       Cu950   2.071       .  S
C945        C946   1.378       .  A
C945        H948   1.082       .  S
C946        C947   1.384       .  A
C946       C1714   1.443       .  S
C947        H949   1.082       .  S
Cu950       N953   2.071       .  S
Cu951       N961   2.094       .  S
Cu952       N954   2.079       .  S
Cu952       N960   2.079       .  S
N953        N954   1.322       .  A
N953        C957   1.345       .  A
N954        C955   1.347       .  A
C955        C956   1.382       .  A
C955        H958   1.082       .  S
C956        C957   1.379       .  A
C956       C1822   1.440       .  S
C957        H959   1.082       .  S
N960        N961   1.325       .  A
N960        C964   1.346       .  A
N961        C962   1.349       .  A
C962        C963   1.384       .  A
C962        H965   1.082       .  S
C963        C964   1.379       .  A
C963       C1721   1.444       .  S
C964        H966   1.082       .  S
N967        C972   1.353       .  A
N967        C971   1.353       .  A
N967        H999   1.036       .  S
N968        C975   1.352       .  A
N968        C976   1.352       .  A
N969        C974   1.353       .  A
N969        C973   1.354       .  A
N969       H1000   1.036       .  S
N970        C977   1.353       .  A
N970        C978   1.352       .  A
C971        C979   1.387       .  A
C971        C987   1.415       .  A
C972        C988   1.415       .  A
C972        C980   1.387       .  A
C973        C981   1.388       .  A
C973        C990   1.416       .  A
C974        C989   1.415       .  A
C974        C982   1.388       .  A
C975        C987   1.414       .  A
C975        C983   1.386       .  A
C976        C990   1.414       .  A
C976        C984   1.387       .  A
C977        C985   1.386       .  A
C977        C988   1.414       .  A
C978        C986   1.387       .  A
C978        C989   1.414       .  A
C979        C980   1.375       .  A
C979        H991   1.082       .  S
C980        H992   1.082       .  S
C981        C982   1.376       .  A
C981        H993   1.082       .  S
C982        H994   1.082       .  S
C983        C984   1.372       .  A
C983        H995   1.082       .  S
C984        H996   1.082       .  S
C985        C986   1.372       .  A
C985        H997   1.082       .  S
C986        H998   1.082       .  S
C987       C1014   1.479       .  S
C988       C1062   1.480       .  S
C989       C1716   1.451       .  S
C990       C1731   1.452       .  S
N1001      N1002   1.323       .  A
N1001      C1005   1.346       .  A
N1001     Cu1009   2.078       .  S
N1002      C1003   1.346       .  A
N1002     Cu1008   2.075       .  S
C1003      C1004   1.382       .  A
C1003      H1006   1.082       .  S
C1004      C1005   1.382       .  A
C1004      C1103   1.481       .  S
C1005      H1007   1.082       .  S
Cu1008     N1011   2.075       .  S
Cu1009     N1019   2.078       .  S
Cu1010     N1012   2.077       .  S
Cu1010     N1018   2.077       .  S
N1011      N1012   1.323       .  A
N1011      C1015   1.345       .  A
N1012      C1013   1.346       .  A
C1013      C1014   1.382       .  A
C1013      H1016   1.082       .  S
C1014      C1015   1.380       .  A
C1015      H1017   1.082       .  S
N1018      N1019   1.323       .  A
N1018      C1022   1.346       .  A
N1019      C1020   1.346       .  A
C1020      C1021   1.380       .  A
C1020      H1023   1.082       .  S
C1021      C1022   1.380       .  A
C1021      C1801   1.439       .  S
C1022      H1024   1.082       .  S
N1025      C1030   1.354       .  A
N1025      C1029   1.353       .  A
N1025      H1057   1.036       .  S
N1026      C1033   1.352       .  A
N1026      C1034   1.353       .  A
N1027      C1032   1.353       .  A
N1027      C1031   1.354       .  A
N1027      H1058   1.036       .  S
N1028      C1035   1.353       .  A
N1028      C1036   1.352       .  A
C1029      C1037   1.388       .  A
C1029      C1045   1.416       .  A
C1030      C1046   1.415       .  A
C1030      C1038   1.387       .  A
C1031      C1039   1.387       .  A
C1031      C1048   1.415       .  A
C1032      C1047   1.415       .  A
C1032      C1040   1.388       .  A
C1033      C1045   1.415       .  A
C1033      C1041   1.387       .  A
C1034      C1048   1.414       .  A
C1034      C1042   1.387       .  A
C1035      C1043   1.386       .  A
C1035      C1046   1.414       .  A
C1036      C1044   1.387       .  A
C1036      C1047   1.414       .  A
C1037      C1038   1.376       .  A
C1037      H1049   1.082       .  S
C1038      H1050   1.082       .  S
C1039      C1040   1.376       .  A
C1039      H1051   1.082       .  S
C1040      H1052   1.082       .  S
C1041      C1042   1.372       .  A
C1041      H1053   1.082       .  S
C1042      H1054   1.082       .  S
C1043      C1044   1.372       .  A
C1043      H1055   1.082       .  S
C1044      H1056   1.082       .  S
C1045      C1130   1.478       .  S
C1046      C1072   1.481       .  S
C1047      C1708   1.450       .  S
C1048      C1739   1.455       .  S
N1059      N1060   1.323       .  A
N1059      C1063   1.347       .  A
N1059     Cu1067   2.075       .  S
N1060      C1061   1.345       .  A
N1060     Cu1066   2.079       .  S
C1061      C1062   1.381       .  A
C1061      H1064   1.082       .  S
C1062      C1063   1.382       .  A
C1063      H1065   1.082       .  S
Cu1066     N1069   2.079       .  S
Cu1067     N1077   2.075       .  S
Cu1068     N1070   2.075       .  S
Cu1068     N1076   2.075       .  S
N1069      N1070   1.323       .  A
N1069      C1073   1.346       .  A
N1070      C1071   1.346       .  A
C1071      C1072   1.382       .  A
C1071      H1074   1.082       .  S
C1072      C1073   1.382       .  A
C1073      H1075   1.082       .  S
N1076      N1077   1.324       .  A
N1076      C1080   1.346       .  A
N1077      C1078   1.346       .  A
C1078      C1079   1.379       .  A
C1078      H1081   1.082       .  S
C1079      C1080   1.379       .  A
C1079      C1826   1.437       .  S
C1080      H1082   1.082       .  S
N1083      C1088   1.354       .  A
N1083      C1087   1.354       .  A
N1083      H1115   1.038       .  S
N1084      C1091   1.352       .  A
N1084      C1092   1.352       .  A
N1085      C1090   1.354       .  A
N1085      C1089   1.354       .  A
N1085      H1116   1.037       .  S
N1086      C1093   1.352       .  A
N1086      C1094   1.353       .  A
C1087      C1095   1.387       .  A
C1087      C1103   1.414       .  A
C1088      C1104   1.415       .  A
C1088      C1096   1.387       .  A
C1089      C1097   1.388       .  A
C1089      C1106   1.416       .  A
C1090      C1105   1.416       .  A
C1090      C1098   1.387       .  A
C1091      C1103   1.412       .  A
C1091      C1099   1.386       .  A
C1092      C1106   1.414       .  A
C1092      C1100   1.387       .  A
C1093      C1101   1.386       .  A
C1093      C1104   1.413       .  A
C1094      C1102   1.387       .  A
C1094      C1105   1.414       .  A
C1095      C1096   1.374       .  A
C1095      H1107   1.082       .  S
C1096      H1108   1.082       .  S
C1097      C1098   1.377       .  A
C1097      H1109   1.082       .  S
C1098      H1110   1.082       .  S
C1099      C1100   1.374       .  A
C1099      H1111   1.082       .  S
C1100      H1112   1.082       .  S
C1101      C1102   1.374       .  A
C1101      H1113   1.082       .  S
C1102      H1114   1.082       .  S
C1104      C1120   1.481       .  S
C1105      C1723   1.455       .  S
C1106      C1705   1.454       .  S
N1117      N1118   1.323       .  A
N1117      C1121   1.346       .  A
N1117     Cu1125   2.076       .  S
N1118      C1119   1.346       .  A
N1118     Cu1124   2.076       .  S
C1119      C1120   1.383       .  A
C1119      H1122   1.082       .  S
C1120      C1121   1.382       .  A
C1121      H1123   1.082       .  S
Cu1124     N1127   2.076       .  S
Cu1125     N1135   2.076       .  S
Cu1126     N1128   2.075       .  S
Cu1126     N1134   2.075       .  S
N1127      N1128   1.323       .  A
N1127      C1131   1.345       .  A
N1128      C1129   1.346       .  A
C1129      C1130   1.381       .  A
C1129      H1132   1.082       .  S
C1130      C1131   1.380       .  A
C1131      H1133   1.082       .  S
N1134      N1135   1.323       .  A
N1134      C1138   1.346       .  A
N1135      C1136   1.346       .  A
C1136      C1137   1.380       .  A
C1136      H1139   1.082       .  S
C1137      C1138   1.380       .  A
C1137      C1844   1.438       .  S
C1138      H1140   1.082       .  S
N1141      N1142   1.325       .  A
N1141      C1145   1.348       .  A
N1141     Cu1149   2.086       .  S
N1142      C1143   1.347       .  A
N1142     Cu1148   2.088       .  S
C1143      C1144   1.381       .  A
C1143      H1146   1.082       .  S
C1144      C1145   1.381       .  A
C1144      C1704   1.444       .  S
C1145      H1147   1.082       .  S
Cu1148     N1151   2.087       .  S
Cu1149     N1159   2.086       .  S
Cu1150     N1152   2.070       .  S
Cu1150     N1158   2.070       .  S
N1151      N1152   1.323       .  A
N1151      C1155   1.349       .  A
N1152      C1153   1.345       .  A
C1153      C1154   1.379       .  A
C1153      H1156   1.082       .  S
C1154      C1155   1.383       .  A
C1154      C1706   1.441       .  S
C1155      H1157   1.082       .  S
N1158      N1159   1.323       .  A
N1158      C1162   1.344       .  A
N1159      C1160   1.349       .  A
C1160      C1161   1.383       .  A
C1160      H1163   1.082       .  S
C1161      C1162   1.378       .  A
C1161      C1702   1.440       .  S
C1162      H1164   1.082       .  S
N1165      N1166   1.323       .  A
N1165      C1169   1.347       .  A
N1165     Cu1173   2.082   1_455  S
N1166      C1167   1.346       .  A
N1166     Cu1172   2.074       .  S
C1167      C1168   1.380       .  A
C1167      H1170   1.082       .  S
C1168      C1169   1.382       .  A
C1168      C1693   1.442       .  S
C1169      H1171   1.082       .  S
Cu1172     N1175   2.074       .  S
Cu1173     N1183   2.082       .  S
Cu1174     N1176   2.076   1_655  S
Cu1174     N1182   2.077       .  S
N1175      N1176   1.323       .  A
N1175      C1179   1.345       .  A
N1176      C1177   1.346       .  A
C1177      C1178   1.380       .  A
C1177      H1180   1.082       .  S
C1178      C1179   1.379       .  A
C1178      C1707   1.437       .  S
C1179      H1181   1.082       .  S
N1182      N1183   1.324       .  A
N1182      C1186   1.346       .  A
N1183      C1184   1.347       .  A
C1184      C1185   1.381       .  A
C1184      H1187   1.082       .  S
C1185      C1186   1.381       .  A
C1185      C1697   1.441       .  S
C1186      H1188   1.082       .  S
N1189      N1190   1.325       .  A
N1189      C1193   1.349       .  A
N1189     Cu1197   2.094       .  S
N1190      C1191   1.346       .  A
N1190     Cu1196   2.082       .  S
C1191      C1192   1.379       .  A
C1191      H1194   1.082       .  S
C1192      C1193   1.383       .  A
C1192      C1703   1.444       .  S
C1193      H1195   1.082       .  S
Cu1196     N1199   2.081       .  S
Cu1197     N1207   2.093       .  S
Cu1198     N1200   2.067       .  S
Cu1198     N1206   2.067       .  S
N1199      N1200   1.322       .  A
N1199      C1203   1.347       .  A
N1200      C1201   1.345       .  A
C1201      C1202   1.379       .  A
C1201      H1204   1.082       .  S
C1202      C1203   1.382       .  A
C1202      C1817   1.439       .  S
C1203      H1205   1.082       .  S
N1206      N1207   1.324       .  A
N1206      C1210   1.344       .  A
N1207      C1208   1.350       .  A
C1208      C1209   1.384       .  A
C1208      H1211   1.082       .  S
C1209      C1210   1.377       .  A
C1209      C1698   1.441       .  S
C1210      H1212   1.082       .  S
O1213     Cu1221   2.013       .  S
O1213      C1223   1.277       .  A
O1214     Cu1221   2.012       .  S
O1214      C1224   1.277       .  A
O1215     Cu1221   2.015       .  S
O1215      C1225   1.277       .  A
O1216     Cu1221   2.014       .  S
O1216      C1226   1.277       .  A
O1217     Cu1222   2.014       .  S
O1217      C1226   1.277       .  A
O1218     Cu1222   2.012       .  S
O1218      C1225   1.277       .  A
O1219     Cu1222   2.014       .  S
O1219      C1224   1.277       .  A
O1220     Cu1222   2.016       .  S
O1220      C1223   1.277       .  A
Cu1221    Cu1222   2.379       .  S
C1223      C1688   1.439       .  S
C1224      C1717   1.437       .  S
C1225      C1692   1.438       .  S
C1226      C1736   1.438       .  S
O1227     Cu1235   2.013       .  S
O1227      C1237   1.277       .  A
O1228     Cu1235   2.014       .  S
O1228      C1238   1.277       .  A
O1229     Cu1235   2.013       .  S
O1229      C1239   1.277       .  A
O1230     Cu1235   2.012       .  S
O1230      C1240   1.277       .  A
O1231     Cu1236   2.015       .  S
O1231      C1240   1.277       .  A
O1232     Cu1236   2.015       .  S
O1232      C1239   1.277       .  A
O1233     Cu1236   2.015       .  S
O1233      C1238   1.277       .  A
O1234     Cu1236   2.016       .  S
O1234      C1237   1.277       .  A
Cu1235    Cu1236   2.378       .  S
C1237      C1728   1.438       .  S
C1238      C1680   1.440       .  S
C1239      C1699   1.439       .  S
C1240      C1681   1.438       .  S
N1241      N1242   1.324       .  A
N1241      C1245   1.347       .  A
N1241     Cu1249   2.080       .  S
N1242      C1243   1.345       .  A
N1242     Cu1248   2.073       .  S
C1243      C1244   1.378       .  A
C1243      H1246   1.082       .  S
C1244      C1245   1.381       .  A
C1244      C1673   1.438       .  S
C1245      H1247   1.082       .  S
Cu1248     N1251   2.072   1_655  S
Cu1249     N1259   2.080   1_655  S
Cu1250     N1252   2.080       .  S
Cu1250     N1258   2.080       .  S
N1251      N1252   1.323       .  A
N1251      C1255   1.346       .  A
N1252      C1253   1.346       .  A
C1253      C1254   1.381       .  A
C1253      H1256   1.082       .  S
C1254      C1255   1.380       .  A
C1254      C1676   1.440       .  S
C1255      H1257   1.082       .  S
N1258      N1259   1.324       .  A
N1258      C1262   1.346       .  A
N1259      C1260   1.347       .  A
C1260      C1261   1.381       .  A
C1260      H1263   1.082       .  S
C1261      C1262   1.380       .  A
C1261      C1685   1.441       .  S
C1262      H1264   1.082       .  S
N1265      N1266   1.324       .  A
N1265      C1269   1.347       .  A
N1265     Cu1273   2.081       .  S
N1266      C1267   1.345       .  A
N1266     Cu1272   2.075       .  S
C1267      C1268   1.379   1_565  A
C1267      H1270   1.082       .  S
C1268      C1269   1.381   1_545  A
C1268      C1670   1.439       .  S
C1269      H1271   1.082       .  S
Cu1272     N1275   2.074       .  S
Cu1273     N1283   2.081       .  S
Cu1274     N1276   2.073       .  S
Cu1274     N1282   2.073       .  S
N1275      N1276   1.323       .  A
N1275      C1279   1.346       .  A
N1276      C1277   1.345       .  A
C1277      C1278   1.379       .  A
C1277      H1280   1.082       .  S
C1278      C1279   1.380       .  A
C1278      C1671   1.437       .  S
C1279      H1281   1.082       .  S
N1282      N1283   1.323       .  A
N1282      C1286   1.345       .  A
N1283      C1284   1.347       .  A
C1284      C1285   1.381       .  A
C1284      H1287   1.082       .  S
C1285      C1286   1.379       .  A
C1285      C1684   1.440       .  S
C1286      H1288   1.082       .  S
N1289      N1290   1.323       .  A
N1289      C1293   1.344       .  A
N1289     Cu1297   2.071       .  S
N1290      C1291   1.347       .  A
N1290     Cu1296   2.080       .  S
C1291      C1292   1.381       .  A
C1291      H1294   1.082       .  S
C1292      C1293   1.378       .  A
C1292      C1674   1.438       .  S
C1293      H1295   1.082       .  S
Cu1296     N1299   2.080       .  S
Cu1297     N1307   2.070       .  S
Cu1298     N1300   2.073       .  S
Cu1298     N1306   2.073       .  S
N1299      N1300   1.324       .  A
N1299      C1303   1.347       .  A
N1300      C1301   1.345       .  A
C1301      C1302   1.379       .  A
C1301      H1304   1.082       .  S
C1302      C1303   1.381       .  A
C1302      C1669   1.438       .  S
C1303      H1305   1.082       .  S
N1306      N1307   1.323       .  A
N1306      C1310   1.345       .  A
N1307      C1308   1.345       .  A
C1308      C1309   1.379       .  A
C1308      H1311   1.082       .  S
C1309      C1310   1.380       .  A
C1309      C1761   1.437       .  S
C1310      H1312   1.082       .  S
N1313      N1314   1.325       .  A
N1313      C1317   1.348       .  A
N1313     Cu1321   2.086       .  S
N1314      C1315   1.347       .  A
N1314     Cu1320   2.088       .  S
C1315      C1316   1.381       .  A
C1315      H1318   1.082       .  S
C1316      C1317   1.381       .  A
C1316      C1666   1.444       .  S
C1317      H1319   1.082       .  S
Cu1320     N1323   2.087       .  S
Cu1321     N1331   2.086       .  S
Cu1322     N1324   2.072       .  S
Cu1322     N1330   2.071       .  S
N1323      N1324   1.323       .  A
N1323      C1327   1.349       .  A
N1324      C1325   1.345       .  A
C1325      C1326   1.379       .  A
C1325      H1328   1.082       .  S
C1326      C1327   1.384       .  A
C1326      C1668   1.442       .  S
C1327      H1329   1.082       .  S
N1330      N1331   1.323       .  A
N1330      C1334   1.344       .  A
N1331      C1332   1.349       .  A
C1332      C1333   1.383       .  A
C1332      H1335   1.082       .  S
C1333      C1334   1.378       .  A
C1333      C1689   1.440       .  S
C1334      H1336   1.082       .  S
N1337      N1338   1.324       .  A
N1337      C1341   1.348       .  A
N1337     Cu1345   2.083       .  S
N1338      C1339   1.346       .  A
N1338     Cu1344   2.080       .  S
C1339      C1340   1.380       .  A
C1339      H1342   1.082       .  S
C1340      C1341   1.382       .  A
C1340      C1660   1.442       .  S
C1341      H1343   1.082       .  S
Cu1344     N1347   2.079       .  S
Cu1345     N1355   2.083       .  S
Cu1346     N1348   2.079       .  S
Cu1346     N1354   2.079       .  S
N1347      N1348   1.323       .  A
N1347      C1351   1.346       .  A
N1348      C1349   1.347       .  A
C1349      C1350   1.381       .  A
C1349      H1352   1.082       .  S
C1350      C1351   1.380       .  A
C1350      C1664   1.440       .  S
C1351      H1353   1.082       .  S
N1354      N1355   1.324       .  A
N1354      C1358   1.346       .  A
N1355      C1356   1.348       .  A
C1356      C1357   1.381   1_565  A
C1356      H1359   1.082   1_565  S
C1357      C1358   1.381   1_545  A
C1357      C1661   1.442       .  S
C1358      H1360   1.082   1_565  S
N1361      N1362   1.324       .  A
N1361      C1365   1.349       .  A
N1361     Cu1369   2.090       .  S
N1362      C1363   1.345       .  A
N1362     Cu1368   2.072       .  S
C1363      C1364   1.378       .  A
C1363      H1366   1.082       .  S
C1364      C1365   1.383       .  A
C1364      C1662   1.442       .  S
C1365      H1367   1.082       .  S
Cu1368     N1371   2.072       .  S
Cu1369     N1379   2.090       .  S
Cu1370     N1372   2.079       .  S
Cu1370     N1378   2.080       .  S
N1371      N1372   1.323       .  A
N1371      C1375   1.345       .  A
N1372      C1373   1.347       .  A
C1373      C1374   1.382       .  A
C1373      H1376   1.082       .  S
C1374      C1375   1.379       .  A
C1374      C1747   1.440       .  S
C1375      H1377   1.082       .  S
N1378      N1379   1.324       .  A
N1378      C1382   1.346       .  A
N1379      C1380   1.349       .  A
C1380      C1381   1.383       .  A
C1380      H1383   1.082       .  S
C1381      C1382   1.380       .  A
C1381      C1665   1.444       .  S
C1382      H1384   1.082       .  S
N1385      N1386   1.323       .  A
N1385      C1389   1.347       .  A
N1385     Cu1393   2.077       .  S
N1386      C1387   1.346       .  A
N1386     Cu1392   2.080       .  S
C1387      C1388   1.382       .  A
C1387      H1390   1.082       .  S
C1388      C1389   1.382       .  A
C1388      C1488   1.481       .  S
C1389      H1391   1.082       .  S
Cu1392     N1395   2.080       .  S
Cu1393     N1403   2.078       .  S
Cu1394     N1396   2.079       .  S
Cu1394     N1402   2.079       .  S
N1395      N1396   1.323       .  A
N1395      C1399   1.346       .  A
N1396      C1397   1.347       .  A
C1397      C1398   1.383       .  A
C1397      H1400   1.082       .  S
C1398      C1399   1.382       .  A
C1398      C1430   1.482       .  S
C1399      H1401   1.082       .  S
N1402      N1403   1.324       .  A
N1402      C1406   1.346       .  A
N1403      C1404   1.346       .  A
C1404      C1405   1.380       .  A
C1404      H1407   1.082       .  S
C1405      C1406   1.380       .  A
C1405      C1742   1.439   1_554  S
C1406      H1408   1.082       .  S
N1409      C1414   1.354       .  A
N1409      C1413   1.354       .  A
N1409      H1441   1.036       .  S
N1410      C1417   1.352       .  A
N1410      C1418   1.353       .  A
N1411      C1416   1.353       .  A
N1411      C1415   1.353       .  A
N1411      H1442   1.036       .  S
N1412      C1419   1.353       .  A
N1412      C1420   1.353       .  A
C1413      C1421   1.387       .  A
C1413      C1429   1.416       .  A
C1414      C1430   1.416       .  A
C1414      C1422   1.387       .  A
C1415      C1423   1.387       .  A
C1415      C1432   1.415       .  A
C1416      C1431   1.415       .  A
C1416      C1424   1.388       .  A
C1417      C1429   1.414       .  A
C1417      C1425   1.387       .  A
C1418      C1432   1.414       .  A
C1418      C1426   1.387       .  A
C1419      C1427   1.386       .  A
C1419      C1430   1.414       .  A
C1420      C1428   1.387       .  A
C1420      C1431   1.415       .  A
C1421      C1422   1.376       .  A
C1421      H1433   1.082       .  S
C1422      H1434   1.082       .  S
C1423      C1424   1.376       .  A
C1423      H1435   1.082       .  S
C1424      H1436   1.082       .  S
C1425      C1426   1.372       .  A
C1425      H1437   1.082       .  S
C1426      H1438   1.082       .  S
C1427      C1428   1.372       .  A
C1427      H1439   1.082       .  S
C1428      H1440   1.082       .  S
C1429      C1548   1.480       .  S
C1431      C1655   1.451       .  S
C1432      C1675   1.453       .  S
N1443      N1444   1.322       .  A
N1443      C1447   1.345       .  A
N1443     Cu1451   2.073       .  S
N1444      C1445   1.346       .  A
N1444     Cu1450   2.072       .  S
C1445      C1446   1.382       .  A
C1445      H1448   1.082       .  S
C1446      C1447   1.381       .  A
C1446      C1522   1.479       .  S
C1447      H1449   1.082       .  S
Cu1450     N1453   2.072       .  S
Cu1451     N1461   2.073       .  S
Cu1452     N1454   2.082       .  S
Cu1452     N1460   2.082       .  S
N1453      N1454   1.324       .  A
N1453      C1457   1.344       .  A
N1454      C1455   1.347       .  A
C1455      C1456   1.383       .  A
C1455      H1458   1.082       .  S
C1456      C1457   1.379       .  A
C1456      C1487   1.479       .  S
C1457      H1459   1.082       .  S
N1460      N1461   1.324       .  A
N1460      C1464   1.347       .  A
N1461      C1462   1.345       .  A
C1462      C1463   1.379       .  A
C1462      H1465   1.082       .  S
C1463      C1464   1.381       .  A
C1463      C1754   1.439   1_554  S
C1464      H1466   1.082       .  S
N1467      C1472   1.353       .  A
N1467      C1471   1.354       .  A
N1467      H1499   1.036       .  S
N1468      C1475   1.352       .  A
N1468      C1476   1.352       .  A
N1469      C1474   1.354       .  A
N1469      C1473   1.353       .  A
N1469      H1500   1.036       .  S
N1470      C1477   1.353       .  A
N1470      C1478   1.353       .  A
C1471      C1479   1.387       .  A
C1471      C1487   1.415       .  A
C1472      C1488   1.415       .  A
C1472      C1480   1.387       .  A
C1473      C1481   1.387       .  A
C1473      C1490   1.415       .  A
C1474      C1489   1.416       .  A
C1474      C1482   1.388       .  A
C1475      C1487   1.413       .  A
C1475      C1483   1.386       .  A
C1476      C1490   1.413       .  A
C1476      C1484   1.387       .  A
C1477      C1485   1.386       .  A
C1477      C1488   1.414       .  A
C1478      C1486   1.387       .  A
C1478      C1489   1.415       .  A
C1479      C1480   1.376       .  A
C1479      H1491   1.082       .  S
C1480      H1492   1.082       .  S
C1481      C1482   1.377       .  A
C1481      H1493   1.082       .  S
C1482      H1494   1.082       .  S
C1483      C1484   1.372       .  A
C1483      H1495   1.082       .  S
C1484      H1496   1.082       .  S
C1485      C1486   1.372       .  A
C1485      H1497   1.082       .  S
C1486      H1498   1.082       .  S
C1489      C1663   1.454       .  S
C1490      C1672   1.451       .  S
N1501      C1506   1.354       .  A
N1501      C1505   1.353       .  A
N1501      H1533   1.038       .  S
N1502      C1509   1.352       .  A
N1502      C1510   1.353       .  A
N1503      C1508   1.354       .  A
N1503      C1507   1.354       .  A
N1503      H1534   1.037       .  S
N1504      C1511   1.352       .  A
N1504      C1512   1.352       .  A
C1505      C1513   1.387       .  A
C1505      C1521   1.414       .  A
C1506      C1522   1.414       .  A
C1506      C1514   1.387       .  A
C1507      C1515   1.387       .  A
C1507      C1524   1.415       .  A
C1508      C1523   1.415       .  A
C1508      C1516   1.387       .  A
C1509      C1521   1.413       .  A
C1509      C1517   1.386       .  A
C1510      C1524   1.414       .  A
C1510      C1518   1.387       .  A
C1511      C1519   1.386       .  A
C1511      C1522   1.412       .  A
C1512      C1520   1.387       .  A
C1512      C1523   1.414       .  A
C1513      C1514   1.373       .  A
C1513      H1525   1.082       .  S
C1514      H1526   1.082       .  S
C1515      C1516   1.376       .  A
C1515      H1527   1.082       .  S
C1516      H1528   1.082       .  S
C1517      C1518   1.373       .  A
C1517      H1529   1.082       .  S
C1518      H1530   1.082       .  S
C1519      C1520   1.373       .  A
C1519      H1531   1.082       .  S
C1520      H1532   1.082       .  S
C1521      C1538   1.478       .  S
C1523      C1653   1.453       .  S
C1524      C1667   1.455       .  S
N1535      N1536   1.322       .  A
N1535      C1539   1.344       .  A
N1535     Cu1543   2.069       .  S
N1536      C1537   1.345       .  A
N1536     Cu1542   2.074       .  S
C1537      C1538   1.382       .  A
C1537      H1540   1.082       .  S
C1538      C1539   1.380       .  A
C1539      H1541   1.082       .  S
Cu1542     N1545   2.074       .  S
Cu1543     N1553   2.069       .  S
Cu1544     N1546   2.079       .  S
Cu1544     N1552   2.079       .  S
N1545      N1546   1.323       .  A
N1545      C1549   1.345       .  A
N1546      C1547   1.347       .  A
C1547      C1548   1.382       .  A
C1547      H1550   1.082       .  S
C1548      C1549   1.380       .  A
C1549      H1551   1.082       .  S
N1552      N1553   1.323       .  A
N1552      C1556   1.346       .  A
N1553      C1554   1.345       .  A
C1554      C1555   1.378       .  A
C1554      H1557   1.082       .  S
C1555      C1556   1.381       .  A
C1555      C1767   1.437   1_554  S
C1556      H1558   1.082       .  S
N1559      N1560   1.325       .  A
N1559      C1563   1.348       .  A
N1559     Cu1567   2.089       .  S
N1560      C1561   1.347       .  A
N1560     Cu1566   2.085       .  S
C1561      C1562   1.381       .  A
C1561      H1564   1.082       .  S
C1562      C1563   1.382       .  A
C1562      C1652   1.444       .  S
C1563      H1565   1.082       .  S
Cu1566     N1569   2.084       .  S
Cu1567     N1577   2.088       .  S
Cu1568     N1570   2.071       .  S
Cu1568     N1576   2.071       .  S
N1569      N1570   1.323       .  A
N1569      C1573   1.348       .  A
N1570      C1571   1.345       .  A
C1571      C1572   1.379       .  A
C1571      H1574   1.082       .  S
C1572      C1573   1.383       .  A
C1572      C1654   1.440       .  S
C1573      H1575   1.082       .  S
N1576      N1577   1.323       .  A
N1576      C1580   1.345       .  A
N1577      C1578   1.349       .  A
C1578      C1579   1.384       .  A
C1578      H1581   1.082       .  S
C1579      C1580   1.379       .  A
C1579      C1677   1.442       .  S
C1580      H1582   1.082       .  S
N1583      N1584   1.323       .  A
N1583      C1587   1.347       .  A
N1583     Cu1591   2.081   1_455  S
N1584      C1585   1.346       .  A
N1584     Cu1590   2.075       .  S
C1585      C1586   1.380       .  A
C1585      H1588   1.082       .  S
C1586      C1587   1.381       .  A
C1586      C1645   1.441       .  S
C1587      H1589   1.082       .  S
Cu1590     N1593   2.074       .  S
Cu1591     N1601   2.081       .  S
Cu1592     N1594   2.078   1_655  S
Cu1592     N1600   2.078       .  S
N1593      N1594   1.323       .  A
N1593      C1597   1.345       .  A
N1594      C1595   1.346       .  A
C1595      C1596   1.380       .  A
C1595      H1598   1.082       .  S
C1596      C1597   1.379       .  A
C1596      C1656   1.438       .  S
C1597      H1599   1.082       .  S
N1600      N1601   1.324       .  A
N1600      C1604   1.346       .  A
N1601      C1602   1.347       .  A
C1602      C1603   1.381       .  A
C1602      H1605   1.082       .  S
C1603      C1604   1.381       .  A
C1603      C1649   1.441       .  S
C1604      H1606   1.082       .  S
N1607      N1608   1.325       .  A
N1607      C1611   1.349       .  A
N1607     Cu1615   2.091       .  S
N1608      C1609   1.346       .  A
N1608     Cu1614   2.079       .  S
C1609      C1610   1.380       .  A
C1609      H1612   1.082       .  S
C1610      C1611   1.383       .  A
C1610      C1651   1.444       .  S
C1611      H1613   1.082       .  S
Cu1614     N1617   2.078       .  S
Cu1615     N1625   2.091       .  S
Cu1616     N1618   2.067       .  S
Cu1616     N1624   2.068       .  S
N1617      N1618   1.322       .  A
N1617      C1621   1.347       .  A
N1618      C1619   1.345       .  A
C1619      C1620   1.379       .  A
C1619      H1622   1.082       .  S
C1620      C1621   1.381       .  A
C1620      C1750   1.438       .  S
C1621      H1623   1.082       .  S
N1624      N1625   1.323       .  A
N1624      C1628   1.344       .  A
N1625      C1626   1.349       .  A
C1626      C1627   1.384       .  A
C1626      H1629   1.082       .  S
C1627      C1628   1.377       .  A
C1627      C1650   1.441       .  S
C1628      H1630   1.082       .  S
O1631     Cu1639   2.015       .  S
O1631      C1641   1.277       .  A
O1632     Cu1639   2.013       .  S
O1632      C1642   1.277       .  A
O1633     Cu1639   2.013       .  S
O1633      C1643   1.277       .  A
O1634     Cu1639   2.013       .  S
O1634      C1644   1.277       .  A
O1635     Cu1640   2.019       .  S
O1635      C1644   1.278       .  A
O1636     Cu1640   2.019       .  S
O1636      C1643   1.277       .  A
O1637     Cu1640   2.019       .  S
O1637      C1642   1.278       .  A
O1638     Cu1640   2.019       .  S
O1638      C1641   1.277       .  A
Cu1639    Cu1640   2.378       .  S
C1641      C1657   1.441       .  S
C1642      C1696   1.440       .  S
C1643      C1648   1.440       .  S
C1644      C1709   1.441       .  S
C1645      C1646   1.208       .  T
C1646      C1647   1.416       .  S
C1647      C1648   1.208       .  T
C1649      C1650   1.208       .  T
C1651      C1652   1.210       .  T
C1653      C1654   1.208       .  T
C1655      C1656   1.207       .  T
C1657      C1658   1.209       .  T
C1658      C1659   1.417       .  S
C1659      C1660   1.209       .  T
C1661      C1662   1.209       .  T
C1663      C1664   1.208       .  T
C1665      C1666   1.210       .  T
C1667      C1668   1.209       .  T
C1669      C1670   1.207       .  T
C1671      C1672   1.207       .  T
C1673      C1674   1.206       .  T
C1675      C1676   1.208       .  T
C1677      C1678   1.209       .  T
C1678      C1679   1.417       .  S
C1679      C1680   1.209       .  T
C1681      C1682   1.208       .  T
C1682      C1683   1.415       .  S
C1683      C1684   1.207       .  T
C1685      C1686   1.208       .  T
C1686      C1687   1.416       .  S
C1687      C1688   1.208       .  T
C1689      C1690   1.208       .  T
C1690      C1691   1.415       .  S
C1691      C1692   1.208       .  T
C1693      C1694   1.208       .  T
C1694      C1695   1.417       .  S
C1695      C1696   1.209       .  T
C1697      C1698   1.208       .  T
C1699      C1700   1.208       .  T
C1700      C1701   1.415       .  S
C1701      C1702   1.208       .  T
C1703      C1704   1.210       .  T
C1705      C1706   1.209       .  T
C1707      C1708   1.206       .  T
C1709      C1710   1.209       .  T
C1710      C1711   1.417       .  S
C1711      C1712   1.209       .  T
C1713      C1714   1.209       .  T
C1715      C1716   1.207       .  T
C1717      C1718   1.207       .  T
C1718      C1719   1.414       .  S
C1719      C1720   1.207       .  T
C1721      C1722   1.210       .  T
C1723      C1724   1.209       .  T
C1725      C1726   1.207       .  T
C1726      C1727   1.415       .  S
C1727      C1728   1.207       .  T
C1729      C1730   1.207       .  T
C1731      C1732   1.207       .  T
C1733      C1734   1.207       .  T
C1734      C1735   1.415       .  S
C1735      C1736   1.207       .  T
C1737      C1738   1.207       .  T
C1739      C1740   1.209       .  T
C1741      C1742   1.207       .  T
C1743      C1744   1.206       .  T
C1745      C1746   1.206       .  T
C1747      C1748   1.208       .  T
C1749      C1750   1.206       .  T
C1751      C1752   1.206       .  T
C1753      C1754   1.207       .  T
C1755      C1756   1.208       .  T
C1757      C1758   1.207       .  T
C1759      C1760   1.208       .  T
C1761      C1762   1.206       .  T
C1763      C1764   1.208       .  T
C1765      C1766   1.207       .  T
C1767      C1768   1.206       .  T
C1769      C1770   1.208       .  T
C1771      C1772   1.206       .  T
C1773      C1774   1.210       .  T
C1775      C1776   1.208       .  T
C1777      C1778   1.206       .  T
C1778      C1779   1.412       .  S
C1779      C1780   1.206       .  T
C1781      C1782   1.208       .  T
C1782      C1783   1.415       .  S
C1783      C1784   1.208       .  T
C1785      C1786   1.208       .  T
C1786      C1787   1.416       .  S
C1787      C1788   1.208       .  T
C1789      C1790   1.209       .  T
C1790      C1791   1.418       .  S
C1791      C1792   1.210       .  T
C1793      C1794   1.208       .  T
C1794      C1795   1.415       .  S
C1795      C1796   1.208       .  T
C1797      C1798   1.207       .  T
C1798      C1799   1.414       .  S
C1799      C1800   1.207       .  T
C1801      C1802   1.207       .  T
C1803      C1804   1.207       .  T
C1804      C1805   1.415       .  S
C1805      C1806   1.207       .  T
C1807      C1808   1.209       .  T
C1809      C1810   1.209       .  T
C1810      C1811   1.417       .  S
C1811      C1812   1.209       .  T
C1813      C1814   1.206       .  T
C1815      C1816   1.206       .  T
C1817      C1818   1.207       .  T
C1819      C1820   1.209       .  T
C1821      C1822   1.208       .  T
C1823      C1824   1.208       .  T
C1825      C1826   1.206       .  T
C1827      C1828   1.207       .  T
C1828      C1829   1.415       .  S
C1829      C1830   1.208       .  T
C1831      C1832   1.205       .  T
C1833      C1834   1.205       .  T
C1835      C1836   1.209       .  T
C1836      C1837   1.417       .  S
C1837      C1838   1.209       .  T
C1839      C1840   1.206       .  T
C1841      C1842   1.205       .  T
C1843      C1844   1.207       .  T
C1845      C1846   1.208       .  T
C1846      C1847   1.416       .  S
C1847      C1848   1.208       .  T
C1849      C1850   1.206       .  T
C1851      C1852   1.206       .  T
C1853      C1854   1.207       .  T
C1854      C1855   1.414       .  S
C1855      C1856   1.207       .  T
C1857      C1858   1.210       .  T
C1859      C1860   1.210       .  T
