geometry optimzed in LAMMPS
_audit_creation_date              2020-11-30 
_audit_creation_method            'lammps2cif' 
_symmetry_space_group_name_H-M    'P1' 
_symmetry_Int_Tables_number       1 
_symmetry_cell_setting            triclinic 
loop_ 
_symmetry_equiv_pos_as_xyz 
  x,y,z 
_cell_length_a                    79.29948025 
_cell_length_b                    30.428541329589965 
_cell_length_c                    26.26428152537263 
_cell_angle_alpha                 90.07265624856096 
_cell_angle_beta                  88.54482821640696 
_cell_angle_gamma                 90.80039604148378 
loop_ 
_atom_site_label 
_atom_site_type_symbol 
_atom_site_fract_x 
_atom_site_fract_y 
_atom_site_fract_z 
_atom_site_charge 
C1          C  0.71185265  0.48415231  0.95450130     0.30900
C2          C  0.71410312  0.48035005  0.05967827     0.30900
C3          C  0.72033706  0.52395345  0.98069643    -0.05300
C4          C  0.69493963  0.48238146  0.98513614    -0.06100
C5          C  0.72114584  0.44483088  0.97608883    -0.06000
C6          C  0.72165162  0.52152274  0.03350587    -0.05300
C7          C  0.69597335  0.47857501  0.03820271    -0.06100
C8          C  0.72234377  0.44243161  0.02887512    -0.06000
C9          C  0.72764269  0.56165905  0.05016357    -0.31400
N10         N  0.72983408  0.58862265  0.00929659     0.15100
C11         C  0.72501721  0.56633294  0.96709265    -0.31400
H12         H  0.72468567  0.58036358  0.92914320     0.17100
C13         C  0.67950629  0.47703445  0.05725451    -0.30400
N14         N  0.66884455  0.48326772  0.01830205     0.13900
C15         C  0.67814027  0.48734713  0.97450378    -0.30300
C16         C  0.72713001  0.39986791  0.03933093    -0.30600
N17         N  0.72920274  0.37706144  0.99502237     0.14400
H18         H  0.72856153  0.38614265  0.07704368     0.17000
C19         C  0.72505974  0.40419571  0.95645127    -0.30600
H20         H  0.72388534  0.39437273  0.91726773     0.17000
H21         H  0.67298520  0.49436857  0.93770600     0.17000
H22         H  0.72960630  0.57114488  0.08915445     0.17100
H23         H  0.67550945  0.47367001  0.09678526     0.17000
C24         C  0.71534489  0.47119687  0.45373170     0.30900
C25         C  0.71403809  0.47220107  0.55949941     0.30900
C26         C  0.72276956  0.51256302  0.47986978    -0.05300
C27         C  0.69754019  0.46966243  0.47952559    -0.06100
C28         C  0.72436164  0.43376567  0.48054763    -0.06000
C29         C  0.72281328  0.51221698  0.53309851    -0.05300
C30         C  0.69702367  0.46953909  0.53276305    -0.06100
C31         C  0.72400753  0.43407991  0.53384148    -0.06000
C32         C  0.73096952  0.55045633  0.54798043    -0.31400
N33         N  0.73466718  0.57520332  0.50609203     0.15100
C34         C  0.72939334  0.55279098  0.46461198    -0.31400
H35         H  0.73045275  0.56500330  0.42600758     0.17100
C36         C  0.68030611  0.46984643  0.54850897    -0.30400
N37         N  0.67058705  0.47078475  0.50672493     0.13900
C38         C  0.68095278  0.47164532  0.46463276    -0.30300
C39         C  0.73402539  0.39945047  0.54839755    -0.30600
N40         N  0.73969789  0.37791135  0.50600406     0.14400
H41         H  0.73721525  0.39072104  0.58686071     0.17000
C42         C  0.73395001  0.39880293  0.46446512    -0.30600
H43         H  0.73667045  0.38938362  0.42540530     0.17000
H44         H  0.67665742  0.47421079  0.42603108     0.17000
H45         H  0.73369773  0.56021363  0.58658742     0.17100
H46         H  0.67555500  0.47059096  0.58751546     0.17000
C47         C  0.80649664  0.98783226  0.03459527     0.30900
C48         C  0.80771578  0.98746553  0.92897948     0.30900
C49         C  0.79614506  0.02383742  0.00789654    -0.05300
C50         C  0.82394324  0.99300908  0.00870282    -0.06100
C51         C  0.79908566  0.94651603  0.00838399    -0.06000
C52         C  0.79682471  0.02359103  0.95432308    -0.05300
C53         C  0.82457770  0.99285402  0.95580561    -0.06100
C54         C  0.79959576  0.94633608  0.95514567    -0.06000
C55         C  0.78595305  0.05551373  0.93821368    -0.31400
N56         N  0.77916682  0.07575971  0.97967259     0.15100
C57         C  0.78471824  0.05581000  0.02209986    -0.31400
H58         H  0.78076549  0.06466389  0.06041065     0.17100
C59         C  0.84122158  0.99935563  0.94083484    -0.30400
N60         N  0.85062187  0.00341086  0.98319241     0.13900
C61         C  0.84018742  0.99958275  0.02481855    -0.30300
C62         C  0.78949964  0.91135307  0.94002928    -0.30600
N63         N  0.78360820  0.88921845  0.98195222     0.14400
H64         H  0.78625971  0.90332264  0.90132241     0.17000
C65         C  0.78899719  0.91131774  0.02367216    -0.30600
H66         H  0.78564306  0.90264976  0.06261284     0.17000
H67         H  0.84414001  0.00172859  0.06389583     0.17000
H68         H  0.78331899  0.06420233  0.89933302     0.17100
H69         H  0.84612595  0.00154244  0.90206057     0.17000
C70         C  0.80998268  0.97761899  0.53425945     0.30900
C71         C  0.80818415  0.97705055  0.42895377     0.30900
C72         C  0.80430481  0.02056323  0.50913468    -0.05300
C73         C  0.82677684  0.97022545  0.50403841    -0.06100
C74         C  0.79822817  0.94282988  0.51107254    -0.06000
C75         C  0.80336215  0.01992177  0.45627998    -0.05300
C76         C  0.82564733  0.96764546  0.45089870    -0.06100
C77         C  0.79735812  0.94189613  0.45778033    -0.06000
C78         C  0.79908156  0.06141756  0.44100264    -0.31400
N79         N  0.79711875  0.08733785  0.48282666     0.15100
C80         C  0.80053855  0.06283750  0.52455171    -0.31400
H81         H  0.80010369  0.07480199  0.56336407     0.17100
C82         C  0.84177737  0.96261655  0.43120394    -0.30400
N83         N  0.85266886  0.96662004  0.46973395     0.13900
C84         C  0.84379674  0.97273454  0.51388186    -0.30300
C85         C  0.79186577  0.89980375  0.44554173    -0.30600
N86         N  0.78836982  0.87691226  0.48898250     0.14400
H87         H  0.79110043  0.88617602  0.40758388     0.17000
C88         C  0.79275005  0.90243705  0.52891784    -0.30600
H89         H  0.79296987  0.89135318  0.56804309     0.17000
H90         H  0.84943005  0.97997978  0.55009494     0.17000
H91         H  0.79760296  0.07209576  0.40208925     0.17100
H92         H  0.84552071  0.95933980  0.39150166     0.17000
O93         O  0.53802978  0.56354100  0.99546989    -0.70900
O94         O  0.49114622  0.58249746  0.97787795    -0.71100
O95         O  0.51370913  0.60745178  0.04782850    -0.71000
O96         O  0.51543915  0.53896063  0.92683005    -0.71000
O97         O  0.51125819  0.47968662  0.97156464    -0.71000
O98         O  0.50593897  0.54867592  0.08978237    -0.71000
O99         O  0.48556957  0.52076221  0.01672698    -0.70900
O100        O  0.53208155  0.50735175  0.04398222    -0.71100
V101        V  0.51449470  0.57213301  0.98790682     1.35200
V102        V  0.50884642  0.51540489  0.02988199     1.35200
C103        C  0.54304655  0.53183440  0.02202818     0.78300
C104        C  0.48044206  0.55374706  0.99266124     0.78400
C105        C  0.50906298  0.58942139  0.08926018     0.78300
C106        C  0.51371516  0.49758501  0.92873014     0.78200
O107        O  0.53370131  0.49434445  0.52920156    -0.70900
O108        O  0.48583284  0.48367984  0.53431513    -0.71100
O109        O  0.51100888  0.45479374  0.59167133    -0.71000
O110        O  0.50870562  0.52235162  0.47155154    -0.71000
O111        O  0.51190135  0.46324735  0.42683511    -0.71000
O112        O  0.51107344  0.39448156  0.54707378    -0.71000
O113        O  0.48714993  0.42631841  0.48523052    -0.70900
O114        O  0.53538006  0.43272366  0.48797358    -0.71100
V115        V  0.50980306  0.48753296  0.53094523     1.35200
V116        V  0.51127499  0.43021178  0.48767491     1.35200
C117        C  0.54278206  0.46549809  0.50785027     0.78300
C118        C  0.47826081  0.45422288  0.50932244     0.78400
C119        C  0.51159503  0.41335407  0.58979180     0.78300
C120        C  0.51056068  0.50452804  0.42836006     0.78200
O121        O  0.98545564  0.06856915  0.01381665    -0.70900
O122        O  0.03348343  0.06539706  0.01539022    -0.71100
O123        O  0.01084741  0.10145908  0.95376903    -0.71000
O124        O  0.00833765  0.03296805  0.07428159    -0.71000
O125        O  0.00553144  0.97393295  0.02945732    -0.71000
O126        O  0.01287879  0.04094173  0.91000613    -0.71000
O127        O  0.03283553  0.00231208  0.97672525    -0.70900
O128        O  0.98540624  0.01228142  0.96282961    -0.71100
V129        V  0.00948343  0.06610305  0.01346461     1.35200
V130        V  0.00914074  0.00858480  0.97043938     1.35200
C131        C  0.97726488  0.04088713  0.98784844     0.78300
C132        C  0.04129842  0.03241907  0.99792313     0.78400
C133        C  0.01298896  0.08241716  0.91139419     0.78300
C134        C  0.00637789  0.99168632  0.07275306     0.78200
O135        O  0.03584715  0.00510712  0.48052432    -0.70900
O136        O  0.98877015  0.00308977  0.45482461    -0.71100
O137        O  0.00831214  0.03935189  0.52606104    -0.71000
O138        O  0.01633403  0.96903774  0.40944124    -0.71000
O139        O  0.01078648  0.90995993  0.45365387    -0.71000
O140        O  0.00792522  0.98068267  0.57234509    -0.71000
O141        O  0.98559650  0.94800872  0.50689952    -0.70900
O142        O  0.03315301  0.94244066  0.51967458    -0.71100
V143        V  0.01227492  0.00303724  0.46845372     1.35200
V144        V  0.00941113  0.94635478  0.51235937     1.35200
C145        C  0.04256102  0.97354712  0.50352216     0.78300
C146        C  0.97909604  0.97586240  0.47787159     0.78400
C147        C  0.00717874  0.02212163  0.56972885     0.78300
C148        C  0.01442511  0.92779859  0.41135758     0.78200
C149        C  0.30978656  0.52507737  0.94864637     0.30900
C150        C  0.31076938  0.52687394  0.05430054     0.30900
C151        C  0.29991114  0.48848506  0.97721946    -0.05300
C152        C  0.32736799  0.52337753  0.97223820    -0.06100
C153        C  0.30310378  0.56737052  0.97486341    -0.06000
C154        C  0.30026297  0.48923598  0.03018120    -0.05300
C155        C  0.32781988  0.52388542  0.02535344    -0.06100
C156        C  0.30279843  0.56756021  0.02844717    -0.06000
C157        C  0.29109281  0.45269323  0.04685743    -0.31400
N158        N  0.28567860  0.42931819  0.00597339     0.15100
C159        C  0.29072653  0.45173232  0.96328929    -0.31400
H160        H  0.28827591  0.44155521  0.92464142     0.17100
C161        C  0.34435980  0.53144366  0.03817532    -0.30400
N162        N  0.35396529  0.53503060  0.99474913     0.13900
C163        C  0.34365039  0.53137400  0.95447049    -0.30300
C164        C  0.29580810  0.60731255  0.04315553    -0.30600
N165        N  0.29369321  0.63239682  0.00120647     0.14400
H166        H  0.29253548  0.61775404  0.08145225     0.17000
C167        C  0.29843564  0.60889251  0.95957394    -0.30600
H168        H  0.29852605  0.62143845  0.92104851     0.17000
H169        H  0.34766796  0.53526364  0.91501915     0.17000
H170        H  0.28911341  0.44268452  0.08604794     0.17100
H171        H  0.34897752  0.53596425  0.07628226     0.17000
C172        C  0.30924885  0.51063112  0.44864840     0.30900
C173        C  0.30825953  0.50932820  0.55413841     0.30900
C174        C  0.29710968  0.47626213  0.47387596    -0.05300
C175        C  0.32590915  0.49857752  0.47457918    -0.06100
C176        C  0.30432525  0.55327474  0.47569517    -0.06000
C177        C  0.29661747  0.47550696  0.52764549    -0.05300
C178        C  0.32539530  0.49797327  0.52795381    -0.06100
C179        C  0.30356587  0.55249666  0.52846360    -0.06000
C180        C  0.29102810  0.43382553  0.54155956    -0.31400
N181        N  0.28724241  0.41067732  0.49928377     0.15100
C182        C  0.29170686  0.43515754  0.45803315    -0.31400
H183        H  0.29189197  0.42300644  0.41927542     0.17100
C184        C  0.34120022  0.48564429  0.54329706    -0.30400
N185        N  0.35125824  0.47983023  0.50135193     0.13900
C186        C  0.34201445  0.48646915  0.45934242    -0.30300
C187        C  0.29666242  0.59166520  0.54426068    -0.30600
N188        N  0.29371793  0.61667574  0.50256636     0.14400
H189        H  0.29333241  0.60048294  0.58311841     0.17000
C190        C  0.29857559  0.59349226  0.46054260    -0.30600
H191        H  0.29749996  0.60445507  0.42158625     0.17000
H192        H  0.34686453  0.48361392  0.42063031     0.17000
H193        H  0.29075781  0.42012853  0.57957405     0.17100
H194        H  0.34528894  0.48225269  0.58206372     0.17000
C195        C  0.21237555  0.02252649  0.06547799     0.30900
C196        C  0.21304455  0.02270445  0.95979645     0.30900
C197        C  0.22248337  0.98531201  0.03903041    -0.05300
C198        C  0.19529218  0.02000794  0.03931591    -0.06100
C199        C  0.22111706  0.06276749  0.03974037    -0.06000
C200        C  0.22260532  0.98481807  0.98591070    -0.05300
C201        C  0.19560501  0.02073358  0.98648315    -0.06100
C202        C  0.22147431  0.06321428  0.98614993    -0.06000
C203        C  0.23277168  0.95017142  0.97088650    -0.31400
N204        N  0.23894816  0.92985526  0.01268886     0.15100
C205        C  0.23320430  0.95256382  0.05421664    -0.31400
H206        H  0.23676961  0.94635267  0.09297169     0.17100
C207        C  0.17906118  0.02048507  0.97146571    -0.30400
N208        N  0.16868752  0.01822065  0.01359072     0.13900
C209        C  0.17860412  0.01754269  0.05516223    -0.30300
C210        C  0.23083509  0.10031153  0.97185229    -0.30600
N211        N  0.23566088  0.12219405  0.01433591     0.14400
H212        H  0.23401348  0.11095950  0.93351129     0.17000
C213        C  0.23045019  0.09869153  0.05565144    -0.30600
H214        H  0.23318732  0.10769253  0.09444470     0.17000
H215        H  0.17405193  0.01531132  0.09427722     0.17000
H216        H  0.23527736  0.94016580  0.93197546     0.17100
H217        H  0.17490715  0.02250452  0.93262829     0.17000
C218        C  0.21364618  0.00816887  0.56453753     0.30900
C219        C  0.21376059  0.00515578  0.45879188     0.30900
C220        C  0.22187585  0.96753928  0.53892320    -0.05300
C221        C  0.19614717  0.00626952  0.53952756    -0.06100
C222        C  0.22237818  0.04673592  0.53637638    -0.06000
C223        C  0.22204110  0.96672315  0.48564786    -0.05300
C224        C  0.19616566  0.00646615  0.48618997    -0.06100
C225        C  0.22243777  0.04543598  0.48331941    -0.06000
C226        C  0.22932669  0.92818697  0.47002174    -0.31400
N227        N  0.23359888  0.90522791  0.51187919     0.15100
C228        C  0.22877589  0.92830456  0.55404620    -0.31400
H229        H  0.23033732  0.91732869  0.59279400     0.17100
C230        C  0.17943845  0.00478871  0.47245194    -0.30400
N231        N  0.16944182  0.00029357  0.51495379     0.13900
C232        C  0.17955782  0.00052249  0.55587245    -0.30300
C233        C  0.22979939  0.08430558  0.46677584    -0.30600
N234        N  0.23438753  0.10875197  0.50761561     0.14400
H235        H  0.23156580  0.09450124  0.42758933     0.17000
C236        C  0.22965711  0.08617877  0.55042962    -0.30600
H237        H  0.23094637  0.09804898  0.58899825     0.17000
H238        H  0.17511117  0.99633114  0.59483801     0.17000
H239        H  0.23134375  0.91746436  0.43105611     0.17100
H240        H  0.17477760  0.00534496  0.43413985     0.17000
C241        C  0.21415379  0.05742269  0.81655429    -0.04600
C242        C  0.21358108  0.01667449  0.79089083     0.09500
C243        C  0.21033264  0.97834660  0.81992031    -0.02000
C244        C  0.20920696  0.98043761  0.87399730    -0.00200
C245        C  0.21215423  0.02081567  0.90027721    -0.03900
C246        C  0.21177152  0.05944320  0.87007910     0.03200
C247        C  0.21398886  0.01513912  0.73316948     0.10000
C248        C  0.20734376  0.93703155  0.79386366     0.35900
C249        C  0.20479976  0.09932026  0.89119699     0.39300
C250        C  0.22856218  0.00186295  0.70553985    -0.04200
C251        C  0.22885409  0.00141847  0.65134808     0.02900
C252        C  0.21426326  0.01273922  0.62381639    -0.03800
C253        C  0.20137076  0.03468560  0.65215888    -0.00100
C254        C  0.20035904  0.03158140  0.70582070    -0.02600
C255        C  0.24349021  0.99022556  0.73298912     0.36600
C256        C  0.19110568  0.06734094  0.62803595     0.40200
C257        C  0.24481687  0.99459322  0.62457632     0.39400
C258        C  0.18533228  0.04639604  0.73303063     0.36300
C259        C  0.21632765  0.09775748  0.78754156     0.37000
C260        C  0.20303852  0.94199607  0.90163339     0.40200
N261        N  0.25763041  0.98954657  0.60342296    -0.37800
N262        N  0.25542612  0.98115683  0.75492528    -0.39400
N263        N  0.18303443  0.09396699  0.60928730    -0.37200
N264        N  0.17333583  0.05793476  0.75489675    -0.39500
N265        N  0.20485817  0.90417383  0.77293386    -0.39300
N266        N  0.19802611  0.91128645  0.92348309    -0.37000
N267        N  0.19866041  0.13113731  0.90640505    -0.38000
N268        N  0.21802872  0.12982131  0.76420680    -0.39700
C269        C  0.21131717  0.97544734  0.20216649    -0.04600
C270        C  0.21115302  0.01322280  0.23352173     0.09500
C271        C  0.20871343  0.05451107  0.21021476    -0.02000
C272        C  0.20816450  0.05811779  0.15624338    -0.00200
C273        C  0.21066763  0.02048998  0.12475136    -0.03900
C274        C  0.20893966  0.97925040  0.14935964     0.03200
C275        C  0.21233769  0.00893235  0.29089322     0.10000
C276        C  0.20637022  0.09314677  0.24187552     0.35900
C277        C  0.20148319  0.94252751  0.12244350     0.39300
C278        C  0.22671699  0.02476869  0.31625738    -0.04200
C279        C  0.22821616  0.01844648  0.36943106     0.02900
C280        C  0.21439125  0.00169130  0.39935653    -0.03800
C281        C  0.20191245  0.97803841  0.37244210    -0.00100
C282        C  0.20004002  0.98467680  0.31956403    -0.02600
C283        C  0.24009405  0.04737150  0.28766284     0.36600
C284        C  0.19287997  0.94167459  0.39677857     0.40200
C285        C  0.24479406  0.02237223  0.39114768     0.39400
C286        C  0.18532487  0.96655821  0.29494564     0.36300
C287        C  0.21417986  0.93247846  0.22378953     0.37000
C288        C  0.20270150  0.09909893  0.13445725     0.40200
N289        N  0.25811266  0.02510997  0.40800712    -0.37800
N290        N  0.25062833  0.06609732  0.26499023    -0.39400
N291        N  0.18581632  0.91230089  0.41598861    -0.37200
N292        N  0.17359355  0.95201684  0.27531565    -0.39500
N293        N  0.20453541  0.12396704  0.26717604    -0.39300
N294        N  0.19826030  0.13197907  0.11757903    -0.37000
N295        N  0.19488555  0.91430008  0.10067407    -0.38000
N296        N  0.21661940  0.89830192  0.24119278    -0.39700
C297        C  0.24573800  0.22430195  0.46540812    -0.04600
C298        C  0.25897768  0.23505126  0.49821129     0.09500
C299        C  0.26423890  0.20382095  0.53391182    -0.02000
C300        C  0.25646381  0.16180217  0.53628452    -0.00200
C301        C  0.24258299  0.15164062  0.50515759    -0.03900
C302        C  0.23710390  0.18369447  0.47036135     0.03200
C303        C  0.26644188  0.28053842  0.49781565     0.10000
C304        C  0.27749523  0.21535664  0.56880398     0.35900
C305        C  0.22204607  0.17602368  0.44127252     0.39300
C306        C  0.25698315  0.31559903  0.51838868    -0.04200
C307        C  0.26382800  0.35855246  0.51829437     0.02900
C308        C  0.28028596  0.36670877  0.49860407    -0.03800
C309        C  0.28976094  0.33177213  0.47805622    -0.00100
C310        C  0.28283079  0.28878047  0.47732055    -0.02600
C311        C  0.24016984  0.30734946  0.53973957     0.36600
C312        C  0.30676051  0.34021161  0.45869225     0.40200
C313        C  0.25367167  0.39465276  0.53684665     0.39400
C314        C  0.29250893  0.25307030  0.45540053     0.36300
C315        C  0.24094762  0.25527644  0.42655571     0.37000
C316        C  0.26308363  0.12894143  0.57000767     0.40200
N317        N  0.24523801  0.42296815  0.55141444    -0.37800
N318        N  0.22675086  0.30056779  0.55652107    -0.39400
N319        N  0.32032967  0.34725667  0.44328297    -0.37200
N320        N  0.30025295  0.22454309  0.43799909    -0.39500
N321        N  0.28803837  0.22488706  0.59659127    -0.39300
N322        N  0.26846464  0.10296993  0.59711666    -0.37000
N323        N  0.21002722  0.16987466  0.41804582    -0.38000
N324        N  0.23718205  0.27980495  0.39532742    -0.39700
C325        C  0.26373130  0.70800969  0.47246226    -0.04600
C326        C  0.26914160  0.74116101  0.50605664     0.09500
C327        C  0.28308207  0.73379163  0.53706695    -0.02000
C328        C  0.29127248  0.69289880  0.53561016    -0.00200
C329        C  0.28563137  0.65906385  0.50287595    -0.03900
C330        C  0.27187177  0.66710567  0.47090610     0.03200
C331        C  0.26009460  0.78395556  0.50855805     0.10000
C332        C  0.28905916  0.76854849  0.57017647     0.35900
C333        C  0.26571558  0.63313040  0.43712244     0.39300
C334        C  0.24471205  0.78730334  0.53649354    -0.04200
C335        C  0.23569600  0.82695525  0.53635129     0.02900
C336        C  0.24257000  0.86430846  0.51124843    -0.03800
C337        C  0.25824034  0.86124848  0.48476129    -0.00100
C338        C  0.26664420  0.82079701  0.48180024    -0.02600
C339        C  0.23818239  0.74984116  0.56522022     0.36600
C340        C  0.26594850  0.90010321  0.46177770     0.40200
C341        C  0.21897806  0.82881340  0.55972767     0.39400
C342        C  0.28179247  0.81668458  0.45014036     0.36300
C343        C  0.24978573  0.71627044  0.43920619     0.37000
C344        C  0.30577151  0.68604764  0.56700957     0.40200
N345        N  0.20553471  0.83016702  0.57782327    -0.37800
N346        N  0.23307361  0.71996240  0.58837836    -0.39400
N347        N  0.27218517  0.93116419  0.44372093    -0.37200
N348        N  0.29375509  0.81319848  0.42437316    -0.39500
N349        N  0.29387639  0.79643495  0.59629434    -0.39300
N350        N  0.31728812  0.68056410  0.59233335    -0.37000
N351        N  0.26081254  0.60641345  0.40957784    -0.38000
N352        N  0.23868148  0.72302969  0.41269197    -0.39700
C353        C  0.25747446  0.33366565  0.04835694    -0.04600
C354        C  0.26322220  0.29953618  0.01597856     0.09500
C355        C  0.27617856  0.30887363  0.97953634    -0.02000
C356        C  0.28365919  0.35126004  0.97647156    -0.00200
C357        C  0.27768071  0.38591436  0.00799839    -0.03900
C358        C  0.26426518  0.37679615  0.04326969     0.03200
C359        C  0.25564342  0.25377804  0.01935259     0.10000
C360        C  0.28193249  0.27449968  0.94512367     0.35900
C361        C  0.25704421  0.41209642  0.07340037     0.39300
C362        C  0.23885336  0.24561188  0.00459806    -0.04200
C363        C  0.23218520  0.20232807  0.00487296     0.02900
C364        C  0.24251057  0.16641316  0.01603571    -0.03800
C365        C  0.25909784  0.17440048  0.03195597    -0.00100
C366        C  0.26549520  0.21795431  0.03502303    -0.02600
C367        C  0.22839383  0.28163652  0.98890372     0.36600
C368        C  0.26953869  0.13760828  0.04490648     0.40200
C369        C  0.21436310  0.19491193  0.99714720     0.39400
C370        C  0.28215019  0.22604904  0.05485673     0.36300
C371        C  0.24476033  0.32423976  0.08765258     0.37000
C372        C  0.29796061  0.35818369  0.94190012     0.40200
N373        N  0.20000811  0.18963338  0.99250087    -0.37800
N374        N  0.21997213  0.31031534  0.97663022    -0.39400
N375        N  0.27789722  0.10818285  0.05512079    -0.37200
N376        N  0.29540855  0.23269606  0.07085900    -0.39500
N377        N  0.28654425  0.24691647  0.91800410    -0.39300
N378        N  0.30932100  0.36280901  0.91381912    -0.37000
N379        N  0.25124468  0.44028289  0.09741043    -0.38000
N380        N  0.23462721  0.31672824  0.11904530    -0.39700
C381        C  0.26340614  0.72582716  0.99018843    -0.04600
C382        C  0.27380131  0.76260825  0.00141980     0.09500
C383        C  0.29103650  0.75587821  0.01131911    -0.02000
C384        C  0.29776149  0.71303596  0.00907075    -0.00200
C385        C  0.28710705  0.67637390  0.00072247    -0.03900
C386        C  0.26989770  0.68291724  0.99194086     0.03200
C387        C  0.26612540  0.80757320  0.00655625     0.10000
C388        C  0.30170907  0.79276810  0.02538754     0.35900
C389        C  0.25872588  0.64521886  0.98700673     0.39300
C390        C  0.25458925  0.81595568  0.04695664    -0.04200
C391        C  0.24579921  0.85602821  0.04956874     0.02900
C392        C  0.24892970  0.88969976  0.01273128    -0.03800
C393        C  0.26162930  0.88227802  0.97459123    -0.00100
C394        C  0.26980259  0.84117870  0.97079143    -0.02600
C395        C  0.25159447  0.78265683  0.08594188     0.36600
C396        C  0.26681372  0.91727977  0.94001582     0.40200
C397        C  0.23332096  0.86081640  0.09019737     0.39400
C398        C  0.28186230  0.83320059  0.92949873     0.36300
C399        C  0.24592638  0.73212095  0.97732199     0.37000
C400        C  0.31566492  0.70654442  0.01475879     0.40200
N401        N  0.22380487  0.86227655  0.12422217    -0.37800
N402        N  0.24917677  0.75606843  0.11684361    -0.39400
N403        N  0.27101113  0.94507601  0.91223690    -0.37200
N404        N  0.29154077  0.82680526  0.89669703    -0.39500
N405        N  0.31019074  0.82223850  0.03682009    -0.39300
N406        N  0.33002805  0.70172118  0.01856672    -0.37000
N407        N  0.24961139  0.61534949  0.98408386    -0.38000
N408        N  0.23198879  0.73716518  0.96697372    -0.39700
C409        C  0.29485352  0.49395665  0.69721927    -0.04600
C410        C  0.30873054  0.51243612  0.72269002     0.09500
C411        C  0.32154569  0.53394166  0.69357802    -0.02000
C412        C  0.32089891  0.53504749  0.63968905    -0.00200
C413        C  0.30783279  0.51250613  0.61351386    -0.03900
C414        C  0.29377210  0.49750218  0.64370755     0.03200
C415        C  0.30875005  0.51418345  0.78026924     0.10000
C416        C  0.33525413  0.55595370  0.71934287     0.35900
C417        C  0.27718468  0.49445687  0.62209016     0.39300
C418        C  0.31974188  0.48798586  0.80825430    -0.04200
C419        C  0.31964327  0.49001669  0.86228379     0.02900
C420        C  0.30900848  0.52002868  0.88945512    -0.03800
C421        C  0.29617981  0.54009585  0.86094367    -0.00100
C422        C  0.29698388  0.54034442  0.80712209    -0.02600
C423        C  0.33103352  0.45835858  0.78129001     0.36600
C424        C  0.28063695  0.55419159  0.88545517     0.40200
C425        C  0.32948881  0.45819400  0.88934829     0.39400
C426        C  0.28544945  0.56738696  0.77919848     0.36300
C427        C  0.28136774  0.47215129  0.72629377     0.37000
C428        C  0.33280135  0.56327568  0.61201621     0.40200
N429        N  0.33739368  0.43270469  0.91065432    -0.37800
N430        N  0.34008442  0.43486134  0.75974035    -0.39400
N431        N  0.26796069  0.56511184  0.90380089    -0.37200
N432        N  0.27630720  0.58895123  0.75676456    -0.39500
N433        N  0.34620636  0.57331272  0.74003631    -0.39300
N434        N  0.34224241  0.58622104  0.59027493    -0.37000
N435        N  0.26379040  0.49334757  0.60564051    -0.38000
N436        N  0.27064634  0.45467461  0.74951617    -0.39700
C437        C  0.31173349  0.56209526  0.19727661    -0.04600
C438        C  0.31170458  0.52126729  0.22264773     0.09500
C439        C  0.31440033  0.48292626  0.19350452    -0.02000
C440        C  0.31548350  0.48513189  0.13950717    -0.00200
C441        C  0.31263056  0.52542345  0.11354003    -0.03900
C442        C  0.31381047  0.56411534  0.14366570     0.03200
C443        C  0.31076265  0.51932804  0.28020535     0.10000
C444        C  0.31658279  0.44136781  0.21932495     0.35900
C445        C  0.32114105  0.60394304  0.12213658     0.39300
C446        C  0.29558725  0.50743445  0.30611765    -0.04200
C447        C  0.29467720  0.50640007  0.36019554     0.02900
C448        C  0.30930503  0.51516426  0.38939196    -0.03800
C449        C  0.32328987  0.53488482  0.36280686    -0.00100
C450        C  0.32457454  0.53353907  0.30904817    -0.02600
C451        C  0.28067073  0.49808402  0.27690872     0.36600
C452        C  0.33511578  0.56261306  0.38956993     0.40200
C453        C  0.27816699  0.50210229  0.38483672     0.39400
C454        C  0.34009293  0.54784967  0.28331421     0.36300
C455        C  0.31019992  0.60237049  0.22655172     0.37000
C456        C  0.32145090  0.44697954  0.11162390     0.40200
N457        N  0.26490136  0.49904289  0.40405040    -0.37800
N458        N  0.26877211  0.49087771  0.25351056    -0.39400
N459        N  0.34435288  0.58586328  0.41025976    -0.37200
N460        N  0.35248952  0.55917810  0.26282012    -0.39500
N461        N  0.31835272  0.40830113  0.24011030    -0.39300
N462        N  0.32628151  0.41644554  0.08966259    -0.37000
N463        N  0.32734333  0.63582585  0.10606702    -0.38000
N464        N  0.30894201  0.63438424  0.25009446    -0.39700
C465        C  0.08881881  0.94140089  0.49468602    -0.04600
C466        C  0.09665872  0.97754122  0.51891700     0.09500
C467        C  0.08650825  0.00993036  0.54246923    -0.02000
C468        C  0.06883082  0.00860368  0.53744412    -0.00200
C469        C  0.06104657  0.97337859  0.51152285    -0.03900
C470        C  0.07104077  0.93856355  0.49265358     0.03200
C471        C  0.11555888  0.98280552  0.51779868     0.10000
C472        C  0.09429596  0.04438424  0.57241413     0.35900
C473        C  0.06308027  0.90012104  0.47041651     0.39300
C474        C  0.12333118  0.01636728  0.48794575    -0.04200
C475        C  0.14099327  0.02285155  0.48815303     0.02900
C476        C  0.15124258  0.99443338  0.51615636    -0.03800
C477        C  0.14345703  0.96008678  0.54503657    -0.00100
C478        C  0.12570113  0.95501393  0.54680849    -0.02600
C479        C  0.11309351  0.04421660  0.45668882     0.36600
C480        C  0.15369942  0.92900532  0.57180718     0.40200
C481        C  0.14853825  0.05985860  0.46088300     0.39400
C482        C  0.11783642  0.92137217  0.57887847     0.36300
C483        C  0.09904780  0.90761115  0.47084111     0.37000
C484        C  0.05859215  0.04291378  0.56025443     0.40200
N485        N  0.15453521  0.08945246  0.43911059    -0.37800
N486        N  0.10488152  0.06633593  0.43180299    -0.39400
N487        N  0.16186234  0.90421865  0.59330029    -0.37200
N488        N  0.11156080  0.89450745  0.60443025    -0.39500
N489        N  0.10051779  0.07162478  0.59665750    -0.39300
N490        N  0.05043071  0.07024810  0.57852257    -0.37000
N491        N  0.05672939  0.86929988  0.45300089    -0.38000
N492        N  0.10720760  0.88058725  0.45191808    -0.39700
C493        C  0.08485686  0.98658916  0.02442086    -0.04600
C494        C  0.09555858  0.02182705  0.00880995     0.09500
C495        C  0.08835648  0.06076998  0.99037214    -0.02000
C496        C  0.07066206  0.06475934  0.98836181    -0.00200
C497        C  0.05995456  0.02896456  0.00227007    -0.03900
C498        C  0.06717266  0.98976945  0.02022714     0.03200
C499        C  0.11442614  0.01847037  0.01224705     0.10000
C500        C  0.09922001  0.09665133  0.97269229     0.35900
C501        C  0.05640616  0.95310314  0.03618597     0.39300
C502        C  0.12364863  0.99123509  0.97838201    -0.04200
C503        C  0.14144257  0.98985834  0.98020118     0.02900
C504        C  0.15034031  0.01752017  0.01403839    -0.03800
C505        C  0.14099636  0.04462827  0.04810079    -0.00100
C506        C  0.12317247  0.04385568  0.04833826    -0.02600
C507        C  0.11480686  0.96474656  0.94133571     0.36600
C508        C  0.14961529  0.07491367  0.08156924     0.40200
C509        C  0.15050800  0.95892584  0.94809742     0.39400
C510        C  0.11374000  0.06903181  0.08609020     0.36300
C511        C  0.09205503  0.94729544  0.04568951     0.37000
C512        C  0.06353188  0.10548358  0.97065443     0.40200
N513        N  0.15766251  0.93411612  0.92237571    -0.37800
N514        N  0.10773375  0.94350125  0.91193516    -0.39400
N515        N  0.15640985  0.09918315  0.10841440    -0.37200
N516        N  0.10616214  0.08880536  0.11634739    -0.39500
N517        N  0.10790069  0.12523982  0.95857962    -0.39300
N518        N  0.05781767  0.13793355  0.95654467    -0.37000
N519        N  0.04787788  0.92374435  0.04889760    -0.38000
N520        N  0.09780934  0.91596963  0.06267409    -0.39700
C521        C  0.00101760  0.13469358  0.78990442    -0.04600
C522        C  0.01390283  0.11742911  0.75820034     0.09500
C523        C  0.02914884  0.10440038  0.77945855    -0.02000
C524        C  0.02970358  0.09704145  0.83211850    -0.00200
C525        C  0.01549933  0.10677176  0.86341928    -0.03900
C526        C  0.00198406  0.13017935  0.84315395     0.03200
C527        C  0.00931501  0.09664968  0.70916398     0.10000
C528        C  0.04325981  0.09237332  0.74630472     0.35900
C529        C  0.98819699  0.14452608  0.87614323     0.39300
C530        C  0.01189868  0.11840631  0.66250347    -0.04200
C531        C  0.00962003  0.09538565  0.61640976     0.02900
C532        C  0.00578044  0.04944926  0.61709358    -0.03800
C533        C  0.00184173  0.02900839  0.66461239    -0.00100
C534        C  0.00358354  0.05257988  0.71015441    -0.02600
C535        C  0.01757040  0.16392644  0.66217376     0.36600
C536        C  0.99607339  0.98353561  0.66774205     0.40200
C537        C  0.01136889  0.11949591  0.56892902     0.39400
C538        C  0.00029389  0.03059182  0.75862739     0.36300
C539        C  0.98599936  0.15194155  0.76734826     0.37000
C540        C  0.04395756  0.07432851  0.85283172     0.40200
N541        N  0.01256490  0.13919100  0.53130285    -0.37800
N542        N  0.02220032  0.20016347  0.66205473    -0.39400
N543        N  0.99150359  0.94731251  0.67075224    -0.37200
N544        N  0.99777369  0.01292680  0.79712234    -0.39500
N545        N  0.05453039  0.08296675  0.71982988    -0.39300
N546        N  0.05525378  0.05539553  0.86856316    -0.37000
N547        N  0.97717923  0.15603435  0.90241839    -0.38000
N548        N  0.97403338  0.16564183  0.74907889    -0.39700
C549        C  0.99921999  0.87930826  0.29116629    -0.04600
C550        C  0.01284817  0.89218392  0.25891142     0.09500
C551        C  0.02885230  0.89969912  0.27938686    -0.02000
C552        C  0.03005109  0.90753401  0.33185305    -0.00200
C553        C  0.01557214  0.90239084  0.36381583    -0.03900
C554        C  0.00071595  0.88343342  0.34427492     0.03200
C555        C  0.00917170  0.91567435  0.21105419     0.10000
C556        C  0.04332920  0.90710726  0.24543060     0.35900
C557        C  0.98623536  0.87450093  0.37770809     0.39300
C558        C  0.00696975  0.96155477  0.21347663    -0.04200
C559        C  0.00515031  0.98600814  0.16879775     0.02900
C560        C  0.00583991  0.96483706  0.12051684    -0.03800
C561        C  0.00715701  0.91808799  0.11878298    -0.00100
C562        C  0.00885825  0.89382917  0.16407186    -0.02600
C563        C  0.00733207  0.98419345  0.26228641     0.36600
C564        C  0.00727403  0.89430360  0.07086110     0.40200
C565        C  0.00283391  0.03314548  0.17372724     0.39400
C566        C  0.01078995  0.84650386  0.16242838     0.36300
C567        C  0.98311214  0.86798446  0.26940724     0.37000
C568        C  0.04538961  0.92708975  0.35123307     0.40200
N569        N  0.00107259  0.07065697  0.17831511    -0.37800
N570        N  0.00783259  0.00254539  0.30084600    -0.39400
N571        N  0.00740615  0.87507885  0.03279648    -0.37200
N572        N  0.01231505  0.80874954  0.16107983    -0.39500
N573        N  0.05486291  0.91295155  0.21828212    -0.39300
N574        N  0.05758939  0.94372501  0.36559585    -0.37000
N575        N  0.97464945  0.86744503  0.40428135    -0.38000
N576        N  0.97026084  0.85914044  0.25186060    -0.39700
C577        C  0.39779134  0.50642804  0.49783096    -0.04600
C578        C  0.40479313  0.46414934  0.50134728     0.09500
C579        C  0.39393474  0.42695016  0.50424797    -0.02000
C580        C  0.37622698  0.43213491  0.50467287    -0.00200
C581        C  0.36929432  0.47434990  0.50143624    -0.03900
C582        C  0.38011506  0.51146496  0.49822888     0.03200
C583        C  0.42360625  0.45909892  0.50338636     0.10000
C584        C  0.40104134  0.38341138  0.50628112     0.35900
C585        C  0.37300930  0.55499809  0.49677251     0.39300
C586        C  0.43163384  0.45907931  0.55071977    -0.04200
C587        C  0.44942153  0.45712088  0.55278704     0.02900
C588        C  0.45938833  0.45368673  0.50743385    -0.03800
C589        C  0.45122524  0.45285908  0.46005833    -0.00100
C590        C  0.43345932  0.45596953  0.45810441    -0.02600
C591        C  0.42150084  0.46143110  0.59738342     0.36600
C592        C  0.46108524  0.45131628  0.41292324     0.40200
C593        C  0.45739617  0.45876657  0.60183654     0.39400
C594        C  0.42526365  0.45696578  0.40937531     0.36300
C595        C  0.40880593  0.54476659  0.49364082     0.37000
C596        C  0.36502781  0.39428111  0.50903107     0.40200
N597        N  0.46363376  0.46042214  0.64116312    -0.37800
N598        N  0.41334374  0.46310847  0.63448374    -0.39400
N599        N  0.46875645  0.45025324  0.37491085    -0.37200
N600        N  0.41867631  0.45796507  0.37058477    -0.39500
N601        N  0.40679338  0.34870344  0.50758905    -0.39300
N602        N  0.35604225  0.36410299  0.51280600    -0.37000
N603        N  0.36756939  0.59007090  0.49612020    -0.38000
N604        N  0.41757170  0.57538936  0.49002727    -0.39700
C605        C  0.43609251  0.52179525  0.95503790    -0.04600
C606        C  0.42657852  0.55503146  0.97944429     0.09500
C607        C  0.43506850  0.59130368  0.00139879    -0.02000
C608        C  0.45287638  0.59353849  0.00017776    -0.00200
C609        C  0.46224150  0.55744565  0.98193700    -0.03900
C610        C  0.45383425  0.52241931  0.95743386     0.03200
C611        C  0.40770318  0.55069003  0.98383975     0.10000
C612        C  0.42551210  0.62510815  0.02769085     0.35900
C613        C  0.46349490  0.48732229  0.93386757     0.39300
C614        C  0.40025823  0.51734557  0.01477030    -0.04200
C615        C  0.38258001  0.51175980  0.01742010     0.02900
C616        C  0.37208067  0.54107502  0.99178691    -0.03800
C617        C  0.37949349  0.57540871  0.96227957    -0.00100
C618        C  0.39722846  0.57946242  0.95719704    -0.02600
C619        C  0.41081239  0.48887721  0.04425988     0.36600
C620        C  0.36887241  0.60735402  0.93838096     0.40200
C621        C  0.37517941  0.47464463  0.04485042     0.39400
C622        C  0.40471973  0.61301150  0.92422587     0.36300
C623        C  0.42759549  0.48641578  0.92837844     0.37000
C624        C  0.46150513  0.63256549  0.01846627     0.40200
N625        N  0.36923648  0.44491084  0.06648777    -0.37800
N626        N  0.41923921  0.46623755  0.06782881    -0.39400
N627        N  0.36041117  0.63300687  0.91943803    -0.37200
N628        N  0.41075375  0.63979209  0.89805131    -0.39500
N629        N  0.41784233  0.65186643  0.04892112    -0.39300
N630        N  0.46836498  0.66392601  0.03262677    -0.37000
N631        N  0.47118321  0.45939547  0.91491996    -0.38000
N632        N  0.42085262  0.45813374  0.90712147    -0.39700
C633        C  0.50732147  0.46213750  0.79222743    -0.04600
C634        C  0.51461175  0.42002911  0.79178336     0.09500
C635        C  0.52147761  0.40300192  0.83639009    -0.02000
C636        C  0.52148416  0.42854241  0.88118089    -0.00200
C637        C  0.51408972  0.47071986  0.88174484    -0.03900
C638        C  0.50659123  0.48679848  0.83735720     0.03200
C639        C  0.51553323  0.39544817  0.74288094     0.10000
C640        C  0.52860302  0.35936814  0.83594241     0.35900
C641        C  0.49734248  0.52769614  0.83841784     0.39300
C642        C  0.53054038  0.39761380  0.71297489    -0.04200
C643        C  0.52968645  0.39288619  0.65990965     0.02900
C644        C  0.51383643  0.38911039  0.63732259    -0.03800
C645        C  0.49954319  0.37782595  0.66752751    -0.00100
C646        C  0.50044434  0.38043400  0.72089882    -0.02600
C647        C  0.54639098  0.40987312  0.73579765     0.36600
C648        C  0.48375566  0.36711745  0.64359013     0.40200
C649        C  0.54485300  0.39552196  0.62802816     0.39400
C650        C  0.48549617  0.37311587  0.75284514     0.36300
C651        C  0.50077573  0.48052659  0.74578451     0.37000
C652        C  0.52947195  0.41165429  0.92610713     0.40200
N653        N  0.55700015  0.39665707  0.60268627    -0.37800
N654        N  0.55903484  0.41979613  0.75395621    -0.39400
N655        N  0.47116996  0.35808841  0.62454014    -0.37200
N656        N  0.47361627  0.36742268  0.77862239    -0.39500
N657        N  0.53429614  0.32455536  0.83554175    -0.39300
N658        N  0.53582351  0.39817501  0.96196416    -0.37000
N659        N  0.48981405  0.56001584  0.83934779    -0.38000
N660        N  0.49561291  0.49517682  0.70874302    -0.39700
C661        C  0.51387682  0.60303634  0.33800135    -0.04600
C662        C  0.51092427  0.58271904  0.29103581     0.09500
C663        C  0.50904337  0.53660402  0.28811056    -0.02000
C664        C  0.50881862  0.51104089  0.33258592    -0.00200
C665        C  0.51123230  0.53131038  0.38069851    -0.03900
C666        C  0.51451273  0.57743493  0.38257057     0.03200
C667        C  0.50946502  0.60879610  0.24360023     0.10000
C668        C  0.50734310  0.51528331  0.23883872     0.35900
C669        C  0.51926612  0.59886627  0.42956462     0.39300
C670        C  0.52417109  0.62035103  0.21516946    -0.04200
C671        C  0.52345515  0.62342586  0.16179248     0.02900
C672        C  0.50817954  0.61334665  0.13779910    -0.03800
C673        C  0.49302211  0.61088878  0.16707387    -0.00100
C674        C  0.49366368  0.60963008  0.22040442    -0.02600
C675        C  0.54022138  0.62393280  0.24012281     0.36600
C676        C  0.47702371  0.60348654  0.14279081     0.40200
C677        C  0.53877833  0.63049678  0.13142374     0.39400
C678        C  0.47836284  0.60227903  0.25092813     0.36300
C679        C  0.51631251  0.65032344  0.34025078     0.37000
C680        C  0.50594284  0.46396535  0.32772916     0.40200
N681        N  0.55100492  0.63603263  0.10714525    -0.37800
N682        N  0.55300620  0.62695772  0.26020920    -0.39400
N683        N  0.46401226  0.59698926  0.12510510    -0.37200
N684        N  0.46617674  0.59613799  0.27520946    -0.39500
N685        N  0.50602465  0.49824114  0.19969123    -0.39300
N686        N  0.50366258  0.42650675  0.32328730    -0.37000
N687        N  0.52321143  0.61607552  0.46682925    -0.38000
N688        N  0.51832598  0.68803141  0.34189060    -0.39700
C689        C  0.93214788  0.97567461  0.51113178    -0.04600
C690        C  0.92502041  0.97307149  0.46256365     0.09500
C691        C  0.93562262  0.97288829  0.41862700    -0.02000
C692        C  0.95332975  0.97500438  0.42329044    -0.00200
C693        C  0.96050686  0.97662240  0.47205432    -0.03900
C694        C  0.94978817  0.97765852  0.51587185     0.03200
C695        C  0.90625591  0.97199455  0.45837244     0.10000
C696        C  0.92826090  0.97043794  0.36869614     0.35900
C697        C  0.95681939  0.98285929  0.56596776     0.39300
C698        C  0.89705200  0.01092242  0.46622969    -0.04200
C699        C  0.87930920  0.00914104  0.46969596     0.02900
C700        C  0.87070638  0.96873714  0.46388398    -0.03800
C701        C  0.87979389  0.93034814  0.45277934    -0.00100
C702        C  0.89757983  0.93174358  0.45079686    -0.02600
C703        C  0.90590890  0.05264248  0.47142775     0.36600
C704        C  0.87071670  0.88938123  0.44472298     0.40200
C705        C  0.86980003  0.04875164  0.47922019     0.39400
C706        C  0.90694754  0.89168574  0.44251325     0.36300
C707        C  0.92123720  0.97648577  0.55635916     0.37000
C708        C  0.96407823  0.97468531  0.37784560     0.40200
N709        N  0.86218810  0.08034787  0.48694810    -0.37800
N710        N  0.91303890  0.08585667  0.47545111    -0.39400
N711        N  0.86337636  0.85683339  0.43800725    -0.37200
N712        N  0.91441591  0.85968459  0.43593620    -0.39500
N713        N  0.92235724  0.96829198  0.32890664    -0.39300
N714        N  0.97250231  0.97450759  0.34123782    -0.37000
N715        N  0.96221201  0.98746666  0.60615483    -0.38000
N716        N  0.91247859  0.97729519  0.59226146    -0.39700
C717        C  0.81098503  0.02184718  0.78540781    -0.04600
C718        C  0.81016948  0.98044507  0.76087764     0.09500
C719        C  0.81111431  0.94224323  0.79127984    -0.02000
C720        C  0.81287734  0.94591099  0.84444580    -0.00200
C721        C  0.80971738  0.98618328  0.86983764    -0.03900
C722        C  0.81108003  0.02476169  0.83939241     0.03200
C723        C  0.80969282  0.97741917  0.70323608     0.10000
C724        C  0.81022587  0.89890185  0.76841616     0.35900
C725        C  0.81481711  0.06691482  0.86250523     0.39300
C726        C  0.82296363  0.95778131  0.67482010    -0.04200
C727        C  0.82194669  0.95282612  0.62144806     0.02900
C728        C  0.80963008  0.97576170  0.59377286    -0.03800
C729        C  0.79548436  0.99148518  0.62269461    -0.00100
C730        C  0.79559675  0.99247781  0.67673893    -0.02600
C731        C  0.83776670  0.94221128  0.70028623     0.36600
C732        C  0.78009361  0.00313116  0.59756673     0.40200
C733        C  0.83134862  0.91735866  0.59789347     0.39400
C734        C  0.78101818  0.00847344  0.70527617     0.36300
C735        C  0.81212262  0.06155480  0.75492580     0.37000
C736        C  0.82128662  0.91111895  0.87104517     0.40200
N737        N  0.83869999  0.88839445  0.57984278    -0.37800
N738        N  0.84956534  0.92970851  0.72056431    -0.39400
N739        N  0.76774255  0.01227269  0.57780258    -0.37200
N740        N  0.76943603  0.02139452  0.72811139    -0.39500
N741        N  0.80947880  0.86421933  0.75040173    -0.39300
N742        N  0.82867665  0.88471245  0.89254058    -0.37000
N743        N  0.81795131  0.10076060  0.88034246    -0.38000
N744        N  0.81293946  0.09312911  0.73041870    -0.39700
C745        C  0.81163076  0.94586918  0.17407981    -0.04600
C746        C  0.80723777  0.98312215  0.20314772     0.09500
C747        C  0.80471645  0.02317104  0.17768984    -0.02000
C748        C  0.80633082  0.02559058  0.12400864    -0.00200
C749        C  0.80739300  0.98673797  0.09397286    -0.03900
C750        C  0.81207134  0.94775793  0.12007262     0.03200
C751        C  0.80721397  0.98175318  0.26064709     0.10000
C752        C  0.80106402  0.06251732  0.20704053     0.35900
C753        C  0.81914737  0.91091543  0.09215789     0.39300
C754        C  0.82055566  0.00150090  0.28722872    -0.04200
C755        C  0.81988072  0.00411133  0.34096248     0.02900
C756        C  0.80714607  0.98094938  0.36980483    -0.03800
C757        C  0.79275764  0.96643082  0.34268075    -0.00100
C758        C  0.79315380  0.96499471  0.28866546    -0.02600
C759        C  0.83508927  0.01924738  0.25908696     0.36600
C760        C  0.77662844  0.96002248  0.36899204     0.40200
C761        C  0.83119463  0.03501952  0.36539288     0.39400
C762        C  0.77888439  0.94702722  0.26170922     0.36300
C763        C  0.81641619  0.90604589  0.20000230     0.37000
C764        C  0.81025463  0.06813106  0.10185105     0.40200
N765        N  0.84014578  0.06015709  0.38438838    -0.37800
N766        N  0.84671978  0.03303536  0.23654465    -0.39400
N767        N  0.76363181  0.95558272  0.38955822    -0.37200
N768        N  0.76755729  0.93240160  0.24016059    -0.39500
N769        N  0.79812197  0.09376109  0.23062767    -0.39300
N770        N  0.81370824  0.10248159  0.08556164    -0.37000
N771        N  0.82488393  0.88149332  0.07012658    -0.38000
N772        N  0.82033098  0.87442182  0.22080613    -0.39700
C773        C  0.89732745  0.98572845  0.96498288    -0.04600
C774        C  0.90406136  0.02420741  0.98738241     0.09500
C775        C  0.89298619  0.05590983  0.00808717    -0.02000
C776        C  0.87534704  0.04910260  0.00651455    -0.00200
C777        C  0.86864275  0.01071167  0.98403310    -0.03900
C778        C  0.87969392  0.97923416  0.96295763     0.03200
C779        C  0.92283027  0.03151894  0.98828487     0.10000
C780        C  0.89978281  0.09574591  0.03049950     0.35900
C781        C  0.87285735  0.93973300  0.94000771     0.39300
C782        C  0.93191736  0.04221198  0.94293866    -0.04200
C783        C  0.94971428  0.04486854  0.94252019     0.02900
C784        C  0.95850445  0.04045711  0.98831493    -0.03800
C785        C  0.94931223  0.03264987  0.03435427    -0.00100
C786        C  0.93161174  0.02664994  0.03401299    -0.02600
C787        C  0.92287465  0.05081722  0.89676602     0.36600
C788        C  0.95810623  0.02905977  0.08190377     0.40200
C789        C  0.95893620  0.05183324  0.89478600     0.39400
C790        C  0.92247807  0.01399972  0.08037898     0.36300
C791        C  0.90858283  0.95254038  0.94455521     0.37000
C792        C  0.86401804  0.08221806  0.02652742     0.40200
N793        N  0.96616508  0.05688252  0.85637123    -0.37800
N794        N  0.91558636  0.05805869  0.86016189    -0.39400
N795        N  0.96504590  0.02646313  0.11998919    -0.37200
N796        N  0.91519484  0.00363139  0.11727514    -0.39500
N797        N  0.90528048  0.12740953  0.04849108    -0.39300
N798        N  0.85496966  0.10871224  0.04243098    -0.37000
N799        N  0.86741887  0.90825501  0.92144442    -0.38000
N800        N  0.91758201  0.92610946  0.92824339    -0.39700
C801        C  0.77058772  0.18653409  0.45725640    -0.04600
C802        C  0.77810135  0.21851508  0.48885261     0.09500
C803        C  0.79278245  0.20787604  0.51530329    -0.02000
C804        C  0.79956739  0.16522087  0.51126557    -0.00200
C805        C  0.79121010  0.13218742  0.48304688    -0.03900
C806        C  0.77668269  0.14326890  0.45591695     0.03200
C807        C  0.76928976  0.26134414  0.49789966     0.10000
C808        C  0.80063626  0.24042457  0.54773042     0.35900
C809        C  0.76729709  0.10959937  0.42911374     0.39300
C810        C  0.75341664  0.26098313  0.52354608    -0.04200
C811        C  0.74350766  0.29903685  0.52490916     0.02900
C812        C  0.74994378  0.33900908  0.50484879    -0.03800
C813        C  0.76621368  0.34009150  0.48167643    -0.00100
C814        C  0.77577875  0.30127508  0.47749777    -0.02600
C815        C  0.74710474  0.22086649  0.54764285     0.36600
C816        C  0.77294958  0.38115493  0.46146984     0.40200
C817        C  0.72608191  0.29546384  0.54208468     0.39400
C818        C  0.79214389  0.30234548  0.45164326     0.36300
C819        C  0.75618406  0.19794457  0.42713535     0.37000
C820        C  0.81527278  0.15547023  0.53560522     0.40200
N821        N  0.71210139  0.29031217  0.55450052    -0.37800
N822        N  0.74216846  0.18880728  0.56682802    -0.39400
N823        N  0.77832692  0.41393500  0.44521931    -0.37200
N824        N  0.80527071  0.30338042  0.43135858    -0.39500
N825        N  0.80691239  0.26649708  0.57348543    -0.39300
N826        N  0.82784804  0.14774691  0.55492234    -0.37000
N827        N  0.75976172  0.08273280  0.40783922    -0.38000
N828        N  0.74469939  0.20709974  0.40318696    -0.39700
C829        C  0.75975700  0.78193695  0.52722084    -0.04600
C830        C  0.76690903  0.74705248  0.49891532     0.09500
C831        C  0.78153583  0.75506172  0.46823410    -0.02000
C832        C  0.78886272  0.79765915  0.46570090    -0.00200
C833        C  0.78135198  0.83285196  0.49264736    -0.03900
C834        C  0.76676415  0.82469696  0.52342267     0.03200
C835        C  0.75869951  0.70223783  0.50059039     0.10000
C836        C  0.78897491  0.71946836  0.43900873     0.35900
C837        C  0.75861543  0.86073914  0.54997211     0.39300
C838        C  0.74312699  0.69494570  0.47677317    -0.04200
C839        C  0.73494842  0.65354061  0.48023439     0.02900
C840        C  0.74263102  0.61828889  0.50532275    -0.03800
C841        C  0.75833524  0.62539334  0.52849501    -0.00100
C842        C  0.76617688  0.66738728  0.52697462    -0.02600
C843        C  0.73554791  0.73012955  0.44841349     0.36600
C844        C  0.76666950  0.58914045  0.55263089     0.40200
C845        C  0.71830302  0.64759141  0.45951933     0.39400
C846        C  0.78190761  0.67487150  0.55281960     0.36300
C847        C  0.74512715  0.77375589  0.56032946     0.37000
C848        C  0.80440747  0.80504237  0.43659355     0.40200
N849        N  0.70498364  0.64283871  0.44316989    -0.37800
N850        N  0.72953548  0.75824527  0.42579398    -0.39400
N851        N  0.77334051  0.56019022  0.57189255    -0.37200
N852        N  0.79446768  0.68092323  0.57337471    -0.39500
N853        N  0.79492126  0.69096553  0.41587281    -0.39300
N854        N  0.81684117  0.81094972  0.41342334    -0.37000
N855        N  0.75213156  0.88954792  0.57116862    -0.38000
N856        N  0.73345020  0.76715157  0.58667502    -0.39700
C857        C  0.62472066  0.43962454  0.52986012    -0.04600
C858        C  0.61654531  0.47435029  0.50528733     0.09500
C859        C  0.62633909  0.50808885  0.48173762    -0.02000
C860        C  0.64414282  0.50717361  0.48292973    -0.00200
C861        C  0.65234363  0.47220926  0.50692133    -0.03900
C862        C  0.64253541  0.43847879  0.53056591     0.03200
C863        C  0.59758851  0.47507599  0.50435682     0.10000
C864        C  0.61808095  0.54373966  0.45620255     0.35900
C865        C  0.65079009  0.40191972  0.55435840     0.39300
C866        C  0.58822657  0.49177767  0.54627755    -0.04200
C867        C  0.57040626  0.48854123  0.54775641     0.02900
C868        C  0.56166674  0.47018417  0.50607249    -0.03800
C869        C  0.57113421  0.45666414  0.46241410    -0.00100
C870        C  0.58897645  0.45779789  0.46230161    -0.02600
C871        C  0.59701926  0.51243692  0.58794963     0.36600
C872        C  0.56259044  0.44396194  0.41636449     0.40200
C873        C  0.56122317  0.50268702  0.59323542     0.39400
C874        C  0.59855605  0.44077356  0.41902186     0.36300
C875        C  0.61471075  0.40476519  0.55383090     0.37000
C876        C  0.65411809  0.54288086  0.46077434     0.40200
N877        N  0.55393610  0.51368687  0.62970259    -0.37800
N878        N  0.60405883  0.52928540  0.62090920    -0.39400
N879        N  0.55579510  0.43455779  0.37933569    -0.37200
N880        N  0.60626564  0.42701539  0.38471252    -0.39500
N881        N  0.61153619  0.57217210  0.43558949    -0.39300
N882        N  0.66221224  0.57123804  0.44322801    -0.37000
N883        N  0.65731536  0.37265073  0.57345318    -0.38000
N884        N  0.60661150  0.37710959  0.57283320    -0.39700
C885        C  0.75099269  0.27533615  0.94450660    -0.04600
C886        C  0.74642105  0.24405232  0.98221844     0.09500
C887        C  0.73509811  0.25604499  0.02203341    -0.02000
C888        C  0.72847749  0.29889775  0.02410870    -0.00200
C889        C  0.73444217  0.33165934  0.98948873    -0.03900
C890        C  0.74584481  0.31934492  0.94960803     0.03200
C891        C  0.75464784  0.19982740  0.98180707     0.10000
C892        C  0.73056785  0.22463556  0.06173705     0.35900
C893        C  0.75312935  0.35207385  0.91516952     0.39300
C894        C  0.77220382  0.19717955  0.98939935    -0.04200
C895        C  0.78029681  0.15636227  0.98616142     0.02900
C896        C  0.77082260  0.11744292  0.97915174    -0.03800
C897        C  0.75333596  0.11966915  0.97203734    -0.00100
C898        C  0.74525487  0.16082266  0.97253297    -0.02600
C899        C  0.78195418  0.23648746  0.00105817     0.36600
C900        C  0.74381992  0.07946429  0.96378054     0.40200
C901        C  0.79851887  0.15443851  0.98780121     0.39400
C902        C  0.72734978  0.16303862  0.96324951     0.36300
C903        C  0.76125571  0.26221492  0.90064616     0.37000
C904        C  0.71515034  0.30859054  0.06101962     0.40200
N905        N  0.81309789  0.15336371  0.98809537    -0.37800
N906        N  0.78968888  0.26788920  0.01035154    -0.39400
N907        N  0.73626525  0.04724322  0.95712848    -0.37200
N908        N  0.71303121  0.16482553  0.95616594    -0.39500
N909        N  0.72695957  0.19961162  0.09345892    -0.39300
N910        N  0.70447825  0.31622096  0.09046146    -0.37000
N911        N  0.75903369  0.37798439  0.88757315    -0.38000
N912        N  0.76936921  0.25158427  0.86562872    -0.39700
C913        C  0.75873763  0.68655170  0.02813639    -0.04600
C914        C  0.74973495  0.72011800  0.00399757     0.09500
C915        C  0.73358045  0.71053203  0.98504300    -0.02000
C916        C  0.72669616  0.66759830  0.98909393    -0.00200
C917        C  0.73612634  0.63345221  0.01029208    -0.03900
C918        C  0.75205949  0.64330267  0.03066879     0.03200
C919        C  0.75770272  0.76480479  0.99605436     0.10000
C920        C  0.72418197  0.74466134  0.96034789     0.35900
C921        C  0.76185599  0.60855121  0.05259569     0.39300
C922        C  0.77101158  0.77030671  0.95988227    -0.04200
C923        C  0.77918783  0.81155613  0.95372324     0.02900
C924        C  0.77391220  0.84830094  0.98300032    -0.03800
C925        C  0.75968934  0.84333972  0.01631162    -0.00100
C926        C  0.75196416  0.80160432  0.02394943    -0.02600
C927        C  0.77642970  0.73311198  0.92915663     0.36600
C928        C  0.75251038  0.88161821  0.04099297     0.40200
C929        C  0.79316253  0.81514391  0.91746145     0.39400
C930        C  0.73830945  0.79626624  0.06128828     0.36300
C931        C  0.77500784  0.69648717  0.04976306     0.37000
C932        C  0.70970754  0.65864287  0.97257642     0.40200
N933        N  0.80404773  0.81602631  0.88733046    -0.37800
N934        N  0.78078858  0.70347023  0.90476530    -0.39400
N935        N  0.74663818  0.91222444  0.06027157    -0.37200
N936        N  0.72742542  0.79179102  0.09109978    -0.39500
N937        N  0.71667891  0.77196192  0.94076286    -0.39300
N938        N  0.69609694  0.65158142  0.95963702    -0.37000
N939        N  0.76964980  0.58079563  0.07022113    -0.38000
N940        N  0.78799020  0.70446445  0.06697016    -0.39700
C941        C  0.71251191  0.43720629  0.70227239    -0.04600
C942        C  0.71121921  0.47785759  0.72800917     0.09500
C943        C  0.70833969  0.51593634  0.69907747    -0.02000
C944        C  0.70797827  0.51374757  0.64514445    -0.00200
C945        C  0.71201459  0.47404373  0.61883949    -0.03900
C946        C  0.71137288  0.43522642  0.64867474     0.03200
C947        C  0.71133366  0.47989111  0.78559989     0.10000
C948        C  0.70529379  0.55728600  0.72503429     0.35900
C949        C  0.70547571  0.39458565  0.62645537     0.39300
C950        C  0.72524018  0.49833326  0.81081613    -0.04200
C951        C  0.72573267  0.49831849  0.86478187     0.02900
C952        C  0.71166334  0.48275291  0.89501080    -0.03800
C953        C  0.69913025  0.45817778  0.86877528    -0.00100
C954        C  0.69819487  0.46012528  0.81512181    -0.02600
C955        C  0.73932429  0.51645626  0.78094545     0.36600
C956        C  0.68896098  0.42485513  0.89500625     0.40200
C957        C  0.74166646  0.50901291  0.88804331     0.39400
C958        C  0.68371015  0.44095475  0.79019265     0.36300
C959        C  0.71454986  0.39697735  0.73095107     0.37000
C960        C  0.70125063  0.55081197  0.61801337     0.40200
N961        N  0.75451151  0.51723895  0.90602483    -0.37000
N962        N  0.75047685  0.53117811  0.75701277    -0.39400
N963        N  0.68102127  0.39756992  0.91534234    -0.37200
N964        N  0.67215097  0.42572025  0.77032096    -0.39500
N965        N  0.70296003  0.59024863  0.74589893    -0.39300
N966        N  0.69576268  0.58046741  0.59675242    -0.37000
N967        N  0.69995906  0.36251515  0.60966964    -0.38000
N968        N  0.71612752  0.36490760  0.75388745    -0.39700
C969        C  0.70573117  0.50209672  0.20491836    -0.04600
C970        C  0.71809191  0.47613720  0.22763449     0.09500
C971        C  0.73063164  0.45709238  0.19580598    -0.02000
C972        C  0.73035153  0.46266586  0.14228633    -0.00200
C973        C  0.71611763  0.48126337  0.11877619    -0.03900
C974        C  0.70517053  0.50616146  0.15118194     0.03200
C975        C  0.71839300  0.47134903  0.28506678     0.10000
C976        C  0.74396475  0.43181105  0.21800034     0.35900
C977        C  0.69471632  0.54005988  0.13024338     0.39300
C978        C  0.70615325  0.44506222  0.31107057    -0.04200
C979        C  0.70588977  0.44219330  0.36503376     0.02900
C980        C  0.71705890  0.46842879  0.39430783    -0.03800
C981        C  0.73134581  0.48650338  0.36727494    -0.00100
C982        C  0.73129689  0.49118022  0.31363631    -0.02600
C983        C  0.69404108  0.42001714  0.28197048     0.36600
C984        C  0.74706463  0.49473558  0.39293392     0.40200
C985        C  0.69573333  0.40781372  0.38923198     0.39400
C986        C  0.74465232  0.51636362  0.28797670     0.36300
C987        C  0.69370901  0.52540660  0.23713774     0.37000
C988        C  0.74587625  0.45576316  0.11317500     0.40200
N989        N  0.68775346  0.37988457  0.40815993    -0.37800
N990        N  0.68439536  0.40018545  0.25850800    -0.39400
N991        N  0.75969041  0.50127498  0.41297923    -0.37200
N992        N  0.75534724  0.53636352  0.26759312    -0.39500
N993        N  0.75462913  0.41168282  0.23561897    -0.39300
N994        N  0.75838688  0.45080613  0.09034275    -0.37000
N995        N  0.68645919  0.56749225  0.11390039    -0.38000
N996        N  0.68409013  0.54375402  0.26298997    -0.39700
C997        C  0.58721473  0.51264166  0.07218522    -0.04600
C998        C  0.59646958  0.50493303  0.02642495     0.09500
C999        C  0.58799708  0.50445531  0.97980142    -0.02000
C1000       C  0.57065865  0.51414762  0.97854749    -0.00200
C1001       C  0.56136593  0.52203711  0.02428067    -0.03900
C1002       C  0.56961803  0.51977289  0.07128035     0.03200
C1003       C  0.61528708  0.49947624  0.02667620     0.10000
C1004       C  0.59715100  0.49356666  0.93304679     0.35900
C1005       C  0.56010551  0.52550279  0.11864468     0.39300
C1006       C  0.62243555  0.45920075  0.04115640    -0.04200
C1007       C  0.64015524  0.45411288  0.03946682     0.02900
C1008       C  0.65080867  0.48899017  0.02272961    -0.03800
C1009       C  0.64365477  0.52922257  0.00851641    -0.00100
C1010       C  0.62600912  0.53455914  0.01074637    -0.02600
C1011       C  0.61152275  0.42273490  0.05657236     0.36600
C1012       C  0.65454921  0.56530085  0.99189197     0.40200
C1013       C  0.64747885  0.41254446  0.05310387     0.39400
C1014       C  0.61883319  0.57622367  0.99647606     0.36300
C1015       C  0.59593170  0.51439951  0.12001390     0.37000
C1016       C  0.56230714  0.51503719  0.93001388     0.40200
N1017       N  0.65336769  0.37936882  0.06398579    -0.37800
N1018       N  0.60278816  0.39364405  0.06883204    -0.39400
N1019       N  0.66326217  0.59400076  0.97832338    -0.37200
N1020       N  0.61307644  0.60940860  0.98502603    -0.39500
N1021       N  0.60442758  0.48456398  0.89581566    -0.39300
N1022       N  0.55569777  0.51593099  0.89125091    -0.37000
N1023       N  0.55254105  0.52962903  0.15657890    -0.38000
N1024       N  0.60297770  0.51603672  0.15803415    -0.39700
loop_ 
_geom_bond_atom_site_label_1 
_geom_bond_atom_site_label_2 
_geom_bond_distance 
_geom_bond_site_symmetry_2 
_ccdc_geom_bond_type 
C1            C3   1.546       .  S
C1            C5   1.531       .  S
C1            C4   1.547       .  S
C1          C952   1.563       .  S
C2            C6   1.536       .  S
C2            C8   1.551       .  S
C2            C7   1.558       .  S
C2          C973   1.565       .  S
C3           C11   1.382       .  A
C3            C6   1.396   1_556  A
C4           C15   1.378       .  A
C4            C7   1.403   1_556  A
C5           C19   1.376       .  A
C5            C8   1.394   1_556  A
C6            C9   1.379       .  A
C7           C13   1.387       .  A
C8           C16   1.384       .  A
C9           N10   1.358       .  A
C9           H22   1.078       .  S
N10          C11   1.359   1_554  A
N10         C917   1.446       .  S
C11          H12   1.086       .  S
C13          N14   1.359       .  A
C13          H23   1.082       .  S
N14          C15   1.355   1_554  A
N14        C1008   1.445       .  S
C15          H21   1.082       .  S
C16          N17   1.362   1_554  A
C16          H18   1.085       .  S
N17          C19   1.357       .  A
N17         C889   1.454       .  S
C19          H20   1.077       .  S
C24          C26   1.549       .  S
C24          C28   1.535       .  S
C24          C27   1.551       .  S
C24         C980   1.565       .  S
C25          C29   1.550       .  S
C25          C31   1.556       .  S
C25          C30   1.538       .  S
C25         C945   1.564       .  S
C26          C34   1.381       .  A
C26          C29   1.398       .  A
C27          C38   1.384       .  A
C27          C30   1.398       .  A
C28          C42   1.376       .  A
C28          C31   1.399       .  A
C29          C32   1.384       .  A
C30          C36   1.379       .  A
C31          C39   1.388       .  A
C32          N33   1.358       .  A
C32          H45   1.082       .  S
N33          C34   1.357       .  A
N33         C840   1.447       .  S
C34          H35   1.081       .  S
C36          N37   1.358       .  A
C36          H46   1.083       .  S
N37          C38   1.361       .  A
N37         C861   1.448       .  S
C38          H44   1.081       .  S
C39          N40   1.361       .  A
C39          H41   1.082       .  S
N40          C42   1.355       .  A
N40         C812   1.445       .  S
C42          H43   1.082       .  S
C47          C49   1.556   1_565  S
C47          C51   1.548       .  S
C47          C50   1.532       .  S
C47         C749   1.563       .  S
C48          C52   1.547   1_565  S
C48          C54   1.553       .  S
C48          C53   1.534       .  S
C48         C721   1.558       .  S
C49          C57   1.383       .  A
C49          C52   1.407   1_554  A
C50          C61   1.378       .  A
C50          C53   1.389   1_554  A
C51          C65   1.382       .  A
C51          C54   1.398   1_554  A
C52          C55   1.382       .  A
C53          C59   1.379       .  A
C54          C62   1.387       .  A
C55          N56   1.354       .  A
C55          H68   1.081       .  S
N56          C57   1.356   1_556  A
N56         C896   1.439       .  S
C57          H58   1.081       .  S
C59          N60   1.359   1_565  A
C59          H69   1.083   1_565  S
N60          C61   1.358   1_546  A
N60         C777   1.444       .  S
C61          H67   1.082   1_565  S
C62          N63   1.361       .  A
C62          H64   1.082       .  S
N63          C65   1.360   1_556  A
N63         C924   1.454       .  S
C65          H66   1.082       .  S
C70          C72   1.543   1_565  S
C70          C74   1.536       .  S
C70          C73   1.552       .  S
C70         C728   1.564       .  S
C71          C75   1.536   1_565  S
C71          C77   1.549       .  S
C71          C76   1.544       .  S
C71         C756   1.563       .  S
C72          C80   1.382       .  A
C72          C75   1.392       .  A
C73          C84   1.382       .  A
C73          C76   1.403       .  A
C74          C88   1.377       .  A
C74          C77   1.403       .  A
C75          C78   1.375       .  A
C76          C82   1.378       .  A
C77          C85   1.387       .  A
C78          N79   1.358       .  A
C78          H91   1.083       .  S
N79          C80   1.361       .  A
N79         C805   1.449       .  S
C80          H81   1.082       .  S
C82          N83   1.351       .  A
C82          H92   1.082       .  S
N83          C84   1.355       .  A
N83         C700   1.435       .  S
C84          H90   1.082       .  S
C85          N86   1.358       .  A
C85          H87   1.082       .  S
N86          C88   1.354       .  A
N86         C833   1.447       .  S
C88          H89   1.083       .  S
O93         V101   1.904       .  S
O93         C103   1.266   1_556  A
O94         V101   1.907       .  S
O94         C104   1.265       .  A
O95         V101   1.905   1_554  S
O95         C105   1.263       .  A
O96         V101   1.895       .  S
O96         C106   1.265       .  A
O97         V102   1.884   1_556  S
O97         C106   1.260       .  A
O98         V102   1.881       .  S
O98         C105   1.261       .  A
O99         V102   1.896       .  S
O99         C104   1.264   1_554  A
O100        V102   1.908       .  S
O100        C103   1.265       .  A
V101        V102   2.087   1_556  T
C103       C1001   1.490       .  S
C104        C609   1.483       .  S
C105        C672   1.468       .  S
C106        C637   1.479       .  S
O107        V115   1.903       .  S
O107        C117   1.265       .  A
O108        V115   1.903       .  S
O108        C118   1.264       .  A
O109        V115   1.887       .  S
O109        C119   1.263       .  A
O110        V115   1.891       .  S
O110        C120   1.263       .  A
O111        V116   1.888       .  S
O111        C120   1.263       .  A
O112        V116   1.902       .  S
O112        C119   1.261       .  A
O113        V116   1.918       .  S
O113        C118   1.269       .  A
O114        V116   1.912       .  S
O114        C117   1.269       .  A
V115        V116   2.084       .  T
C117        C868   1.502       .  S
C118        C588   1.499       .  S
C119        C644   1.467       .  S
C120        C665   1.494       .  S
O121        V129   1.908   1_655  S
O121        C131   1.266   1_554  A
O122        V129   1.906       .  S
O122        C132   1.266   1_554  A
O123        V129   1.903   1_556  S
O123        C133   1.263       .  A
O124        V129   1.890       .  S
O124        C134   1.264   1_545  A
O125        V130   1.889   1_564  S
O125        C134   1.261       .  A
O126        V130   1.884       .  S
O126        C133   1.262       .  A
O127        V130   1.903       .  S
O127        C132   1.265       .  A
O128        V130   1.903   1_655  S
O128        C131   1.264       .  A
V129        V130   2.082   1_554  T
C131        C784   1.487       .  S
C132        C497   1.492   1_556  S
C133        C525   1.470       .  S
C134        C560   1.497       .  S
O135        V143   1.904       .  S
O135        C145   1.266   1_545  A
O136        V143   1.907   1_655  S
O136        C146   1.265   1_545  A
O137        V143   1.895       .  S
O137        C147   1.262       .  A
O138        V143   1.886   1_565  S
O138        C148   1.263       .  A
O139        V144   1.899       .  S
O139        C148   1.262       .  A
O140        V144   1.891       .  S
O140        C147   1.265   1_565  A
O141        V144   1.899   1_655  S
O141        C146   1.265       .  A
O142        V144   1.903       .  S
O142        C145   1.264       .  A
V143        V144   2.083   1_545  T
C145        C469   1.486       .  S
C146        C693   1.486       .  S
C147        C532   1.498       .  S
C148        C553   1.469       .  S
C149        C151   1.538       .  S
C149        C153   1.552       .  S
C149        C152   1.542       .  S
C149        C420   1.565       .  S
C150        C154   1.551       .  S
C150        C156   1.562       .  S
C150        C155   1.538       .  S
C150        C441   1.567       .  S
C151        C159   1.380       .  A
C151        C154   1.392   1_556  A
C152        C163   1.380       .  A
C152        C155   1.396   1_556  A
C153        C167   1.384       .  A
C153        C156   1.407   1_556  A
C154        C157   1.385       .  A
C155        C161   1.379       .  A
C156        C164   1.388       .  A
C157        N158   1.362       .  A
C157        H170   1.081       .  S
N158        C159   1.362   1_554  A
N158        C357   1.458       .  S
C159        H160   1.082       .  S
C161        N162   1.359   1_554  A
C161        H171   1.082       .  S
N162        C163   1.357       .  A
N162        C616   1.446       .  S
C163        H169   1.082       .  S
C164        N165   1.356       .  A
C164        H166   1.081       .  S
N165        C167   1.354   1_554  A
N165        C385   1.443       .  S
C167        H168   1.082       .  S
C172        C174   1.549       .  S
C172        C176   1.529       .  S
C172        C175   1.550       .  S
C172        C448   1.562       .  S
C173        C177   1.549       .  S
C173        C179   1.532       .  S
C173        C178   1.550       .  S
C173        C413   1.562       .  S
C174        C182   1.383       .  A
C174        C177   1.412       .  A
C175        C186   1.383       .  A
C175        C178   1.402       .  A
C176        C190   1.375       .  A
C176        C179   1.386       .  A
C177        C180   1.384       .  A
C178        C184   1.383       .  A
C179        C187   1.378       .  A
C180        N181   1.352       .  A
C180        H193   1.082       .  S
N181        C182   1.352       .  A
N181        C308   1.440       .  S
C182        H183   1.082       .  S
C184        N185   1.356       .  A
C184        H194   1.082       .  S
N185        C186   1.357       .  A
N185        C581   1.442       .  S
C186        H192   1.082       .  S
C187        N188   1.361       .  A
C187        H189   1.082       .  S
N188        C190   1.360       .  A
N188        C329   1.448       .  S
C190        H191   1.082       .  S
C195        C197   1.550   1_545  S
C195        C199   1.546       .  S
C195        C198   1.535       .  S
C195        C273   1.560       .  S
C196        C200   1.558   1_545  S
C196        C202   1.563       .  S
C196        C201   1.535       .  S
C196        C245   1.568       .  S
C197        C205   1.384       .  A
C197        C200   1.395   1_554  A
C198        C209   1.378       .  A
C198        C201   1.387   1_554  A
C199        C213   1.382       .  A
C199        C202   1.407   1_554  A
C200        C203   1.387       .  A
C201        C207   1.379       .  A
C202        C210   1.389       .  A
C203        N204   1.366   1_556  A
C203        H216   1.080       .  S
N204        C205   1.362       .  A
N204        C392   1.465       .  S
C205        H206   1.081       .  S
C207        N208   1.363   1_556  A
C207        H217   1.082       .  S
N208        C209   1.362       .  A
N208        C504   1.455       .  S
C209        H215   1.082       .  S
C210        N211   1.359   1_556  A
C210        H212   1.081       .  S
N211        C213   1.353       .  A
N211        C364   1.445       .  S
C213        H214   1.081       .  S
C218        C220   1.551   1_545  S
C218        C222   1.535       .  S
C218        C221   1.551       .  S
C218        C252   1.565       .  S
C219        C223   1.531   1_545  S
C219        C225   1.545       .  S
C219        C224   1.555       .  S
C219        C280   1.564       .  S
C220        C228   1.383       .  A
C220        C223   1.399       .  A
C221        C232   1.382       .  A
C221        C224   1.401       .  A
C222        C236   1.378       .  A
C222        C225   1.394       .  A
C223        C226   1.372       .  A
C224        C230   1.384       .  A
C225        C233   1.378       .  A
C226        N227   1.356       .  A
C226        H239   1.082       .  S
N227        C228   1.360       .  A
N227        C336   1.442       .  S
C228        H229   1.082       .  S
C230        N231   1.359       .  A
C230        H240   1.081       .  S
N231        C232   1.357       .  A
N231        C476   1.451   1_545  S
C232        H238   1.081   1_545  S
C233        N234   1.359       .  A
C233        H235   1.080       .  S
N234        C236   1.360       .  A
N234        C301   1.451       .  S
C236        H237   1.082       .  S
C241        C242   1.411       .  A
C241        C246   1.415       .  A
C241        C259   1.451       .  S
C242        C243   1.411   1_545  A
C242        C247   1.516       .  S
C243        C244   1.422       .  A
C243        C248   1.450       .  S
C244        C245   1.428   1_565  A
C244        C260   1.450       .  S
C245        C246   1.420       .  A
C246        C249   1.445       .  S
C247        C250   1.412       .  A
C247        C254   1.411       .  A
C248        N265   1.157       .  T
C249        N267   1.156       .  T
C250        C251   1.423       .  A
C250        C255   1.450   1_545  S
C251        C252   1.426       .  A
C251        C257   1.450   1_545  S
C252        C253   1.423       .  A
C253        C254   1.413       .  A
C253        C256   1.450       .  S
C254        C258   1.451       .  S
C255        N262   1.157       .  T
C256        N263   1.158       .  T
C257        N261   1.158       .  T
C258        N264   1.157       .  T
C259        N268   1.157       .  T
C260        N266   1.158       .  T
C269        C270   1.413   1_565  A
C269        C274   1.410       .  A
C269        C287   1.449       .  S
C270        C271   1.416       .  A
C270        C275   1.518       .  S
C271        C272   1.424       .  A
C271        C276   1.450       .  S
C272        C273   1.425       .  A
C272        C288   1.449       .  S
C273        C274   1.416   1_545  A
C274        C277   1.449       .  S
C275        C278   1.414       .  A
C275        C282   1.417   1_545  A
C276        N293   1.157       .  T
C277        N295   1.157       .  T
C278        C279   1.418       .  A
C278        C283   1.450       .  S
C279        C280   1.422       .  A
C279        C285   1.450       .  S
C280        C281   1.418   1_545  A
C281        C282   1.416       .  A
C281        C284   1.450       .  S
C282        C286   1.450       .  S
C283        N290   1.157       .  T
C284        N291   1.158       .  T
C285        N289   1.157       .  T
C286        N292   1.157       .  T
C287        N296   1.157       .  T
C288        N294   1.158       .  T
C297        C298   1.410       .  A
C297        C302   1.409       .  A
C297        C315   1.451       .  S
C298        C299   1.411       .  A
C298        C303   1.498       .  S
C299        C300   1.412       .  A
C299        C304   1.451       .  S
C300        C301   1.418       .  A
C300        C316   1.449       .  S
C301        C302   1.418       .  A
C302        C305   1.450       .  S
C303        C306   1.412       .  A
C303        C310   1.413       .  A
C304        N321   1.157       .  T
C305        N323   1.157       .  T
C306        C307   1.408       .  A
C306        C311   1.452       .  S
C307        C308   1.410       .  A
C307        C313   1.448       .  S
C308        C309   1.409       .  A
C309        C310   1.412       .  A
C309        C312   1.448       .  S
C310        C314   1.449       .  S
C311        N318   1.157       .  T
C312        N319   1.157       .  T
C313        N317   1.157       .  T
C314        N320   1.157       .  T
C315        N324   1.157       .  T
C316        N322   1.158       .  T
C325        C326   1.409       .  A
C325        C330   1.410       .  A
C325        C343   1.451       .  S
C326        C327   1.410       .  A
C326        C331   1.496       .  S
C327        C328   1.412       .  A
C327        C332   1.451       .  S
C328        C329   1.416       .  A
C328        C344   1.449       .  S
C329        C330   1.418       .  A
C330        C333   1.449       .  S
C331        C334   1.412       .  A
C331        C338   1.410       .  A
C332        N349   1.157       .  T
C333        N351   1.157       .  T
C334        C335   1.411       .  A
C334        C339   1.450       .  S
C335        C336   1.411       .  A
C335        C341   1.449       .  S
C336        C337   1.413       .  A
C337        C338   1.409       .  A
C337        C340   1.449       .  S
C338        C342   1.450       .  S
C339        N346   1.157       .  T
C340        N347   1.157       .  T
C341        N345   1.157       .  T
C342        N348   1.157       .  T
C343        N352   1.157       .  T
C344        N350   1.157       .  T
C353        C354   1.414       .  A
C353        C358   1.417       .  A
C353        C371   1.450       .  S
C354        C355   1.412   1_554  A
C354        C359   1.511       .  S
C355        C356   1.414       .  A
C355        C360   1.452       .  S
C356        C357   1.419   1_556  A
C356        C372   1.448       .  S
C357        C358   1.417       .  A
C358        C361   1.449       .  S
C359        C362   1.415       .  A
C359        C366   1.417       .  A
C360        N377   1.157       .  T
C361        N379   1.157       .  T
C362        C363   1.412       .  A
C362        C367   1.450   1_554  S
C363        C364   1.410       .  A
C363        C369   1.447   1_554  S
C364        C365   1.408       .  A
C365        C366   1.415       .  A
C365        C368   1.448       .  S
C366        C370   1.450       .  S
C367        N374   1.157       .  T
C368        N375   1.157       .  T
C369        N373   1.157       .  T
C370        N376   1.157       .  T
C371        N380   1.157       .  T
C372        N378   1.157       .  T
C381        C382   1.416   1_556  A
C381        C386   1.411       .  A
C381        C399   1.450       .  S
C382        C383   1.415       .  A
C382        C387   1.510       .  S
C383        C384   1.416       .  A
C383        C388   1.450       .  S
C384        C385   1.410       .  A
C384        C400   1.448       .  S
C385        C386   1.407   1_554  A
C386        C389   1.447       .  S
C387        C390   1.409       .  A
C387        C394   1.412   1_554  A
C388        N405   1.157       .  T
C389        N407   1.157       .  T
C390        C391   1.414       .  A
C390        C395   1.454       .  S
C391        C392   1.425       .  A
C391        C397   1.445       .  S
C392        C393   1.422   1_554  A
C393        C394   1.419       .  A
C393        C396   1.449       .  S
C394        C398   1.450       .  S
C395        N402   1.157       .  T
C396        N403   1.158       .  T
C397        N401   1.156       .  T
C398        N404   1.157       .  T
C399        N408   1.157       .  T
C400        N406   1.157       .  T
C409        C410   1.412       .  A
C409        C414   1.415       .  A
C409        C427   1.452       .  S
C410        C411   1.410       .  A
C410        C415   1.513       .  S
C411        C412   1.418       .  A
C411        C416   1.451       .  S
C412        C413   1.425       .  A
C412        C428   1.449       .  S
C413        C414   1.422       .  A
C414        C417   1.448       .  S
C415        C418   1.410       .  A
C415        C422   1.410       .  A
C416        N433   1.157       .  T
C417        N435   1.157       .  T
C418        C419   1.420       .  A
C418        C423   1.451       .  S
C419        C420   1.430       .  A
C419        C425   1.450       .  S
C420        C421   1.423       .  A
C421        C422   1.413       .  A
C421        C424   1.446       .  S
C422        C426   1.452       .  S
C423        N430   1.157       .  T
C424        N431   1.156       .  T
C425        N429   1.158       .  T
C426        N432   1.157       .  T
C427        N436   1.157       .  T
C428        N434   1.157       .  T
C437        C438   1.410       .  A
C437        C442   1.415       .  A
C437        C455   1.451       .  S
C438        C439   1.410       .  A
C438        C443   1.513       .  S
C439        C440   1.420       .  A
C439        C444   1.450       .  S
C440        C441   1.427       .  A
C440        C456   1.450       .  S
C441        C442   1.421       .  A
C442        C445   1.446       .  S
C443        C446   1.410       .  A
C443        C450   1.410       .  A
C444        N461   1.157       .  T
C445        N463   1.157       .  T
C446        C447   1.421       .  A
C446        C451   1.451       .  S
C447        C448   1.429       .  A
C447        C453   1.450       .  S
C448        C449   1.421       .  A
C449        C450   1.414       .  A
C449        C452   1.448       .  S
C450        C454   1.451       .  S
C451        N458   1.157       .  T
C452        N459   1.156       .  T
C453        N457   1.158       .  T
C454        N460   1.157       .  T
C455        N464   1.157       .  T
C456        N462   1.158       .  T
C465        C466   1.414       .  A
C465        C470   1.414       .  A
C465        C483   1.450       .  S
C466        C467   1.413   1_565  A
C466        C471   1.505       .  S
C467        C468   1.411       .  A
C467        C472   1.450       .  S
C468        C469   1.412   1_545  A
C468        C484   1.451       .  S
C469        C470   1.414       .  A
C470        C473   1.451       .  S
C471        C474   1.413   1_565  A
C471        C478   1.412       .  A
C472        N489   1.157       .  T
C473        N491   1.158       .  T
C474        C475   1.412       .  A
C474        C479   1.451       .  S
C475        C476   1.415   1_545  A
C475        C481   1.449       .  S
C476        C477   1.417       .  A
C477        C478   1.414       .  A
C477        C480   1.449       .  S
C478        C482   1.451       .  S
C479        N486   1.157       .  T
C480        N487   1.158       .  T
C481        N485   1.157       .  T
C482        N488   1.157       .  T
C483        N492   1.157       .  T
C484        N490   1.157       .  T
C493        C494   1.413   1_565  A
C493        C498   1.414       .  A
C493        C511   1.451       .  S
C494        C495   1.414   1_554  A
C494        C499   1.506       .  S
C495        C496   1.412       .  A
C495        C500   1.451       .  S
C496        C497   1.414   1_556  A
C496        C512   1.451       .  S
C497        C498   1.417   1_545  A
C498        C501   1.451       .  S
C499        C502   1.412   1_544  A
C499        C506   1.412       .  A
C500        N517   1.157       .  T
C501        N519   1.157       .  T
C502        C503   1.414       .  A
C502        C507   1.451       .  S
C503        C504   1.418   1_566  A
C503        C509   1.449       .  S
C504        C505   1.418       .  A
C505        C506   1.413       .  A
C505        C508   1.449       .  S
C506        C510   1.451       .  S
C507        N514   1.157       .  T
C508        N515   1.157       .  T
C509        N513   1.157       .  T
C510        N516   1.157       .  T
C511        N520   1.157       .  T
C512        N518   1.157       .  T
C521        C522   1.409       .  A
C521        C526   1.410       .  A
C521        C539   1.449   1_455  S
C522        C523   1.407       .  A
C522        C527   1.485       .  S
C523        C524   1.403       .  A
C523        C528   1.451       .  S
C524        C525   1.412       .  A
C524        C540   1.451       .  S
C525        C526   1.411       .  A
C526        C529   1.449   1_455  S
C527        C530   1.403       .  A
C527        C534   1.410       .  A
C528        N545   1.157       .  T
C529        N547   1.157       .  T
C530        C531   1.412       .  A
C530        C535   1.450       .  S
C531        C532   1.426       .  A
C531        C537   1.450       .  S
C532        C533   1.421       .  A
C533        C534   1.403       .  A
C533        C536   1.453   1_445  S
C534        C538   1.455       .  S
C535        N542   1.157       .  T
C536        N543   1.158       .  T
C537        N541   1.158       .  T
C538        N544   1.157   1_455  T
C539        N548   1.157       .  T
C540        N546   1.157       .  T
C549        C550   1.408   1_655  A
C549        C554   1.408   1_655  A
C549        C567   1.450       .  S
C550        C551   1.407       .  A
C550        C555   1.484       .  S
C551        C552   1.404       .  A
C551        C556   1.451       .  S
C552        C553   1.412       .  A
C552        C568   1.450       .  S
C553        C554   1.412       .  A
C554        C557   1.451   1_455  S
C555        C558   1.411       .  A
C555        C562   1.401       .  A
C556        N573   1.157       .  T
C557        N575   1.157       .  T
C558        C559   1.402       .  A
C558        C563   1.455       .  S
C559        C560   1.422       .  A
C559        C565   1.454   1_565  S
C560        C561   1.428       .  A
C561        C562   1.411       .  A
C561        C564   1.451       .  S
C562        C566   1.451       .  S
C563        N570   1.157   1_565  T
C564        N571   1.158       .  T
C565        N569   1.158       .  T
C566        N572   1.157       .  T
C567        N576   1.157       .  T
C568        N574   1.157       .  T
C577        C578   1.412       .  A
C577        C582   1.412       .  A
C577        C595   1.450       .  S
C578        C579   1.414       .  A
C578        C583   1.504       .  S
C579        C580   1.415       .  A
C579        C584   1.449       .  S
C580        C581   1.408       .  A
C580        C596   1.447       .  S
C581        C582   1.410       .  A
C582        C585   1.448       .  S
C583        C586   1.411       .  A
C583        C590   1.410       .  A
C584        N601   1.157       .  T
C585        N603   1.157       .  T
C586        C587   1.415       .  A
C586        C591   1.451       .  S
C587        C588   1.417       .  A
C587        C593   1.450       .  S
C588        C589   1.417       .  A
C589        C590   1.416       .  A
C589        C592   1.448       .  S
C590        C594   1.451       .  S
C591        N598   1.157       .  T
C592        N599   1.156       .  T
C593        N597   1.157       .  T
C594        N600   1.157       .  T
C595        N604   1.157       .  T
C596        N602   1.157       .  T
C605        C606   1.414       .  A
C605        C610   1.410       .  A
C605        C623   1.451       .  S
C606        C607   1.415   1_556  A
C606        C611   1.502       .  S
C607        C608   1.412       .  A
C607        C612   1.450       .  S
C608        C609   1.411   1_554  A
C608        C624   1.450       .  S
C609        C610   1.412       .  A
C610        C613   1.452       .  S
C611        C614   1.414   1_556  A
C611        C618   1.413       .  A
C612        N629   1.157       .  T
C613        N631   1.157       .  T
C614        C615   1.410       .  A
C614        C619   1.451       .  S
C615        C616   1.412   1_554  A
C615        C621   1.449       .  S
C616        C617   1.414       .  A
C617        C618   1.413       .  A
C617        C620   1.449       .  S
C618        C622   1.451       .  S
C619        N626   1.157       .  T
C620        N627   1.157       .  T
C621        N625   1.157       .  T
C622        N628   1.157       .  T
C623        N632   1.157       .  T
C624        N630   1.157       .  T
C633        C634   1.413       .  A
C633        C638   1.402       .  A
C633        C651   1.453       .  S
C634        C635   1.407       .  A
C634        C639   1.486       .  S
C635        C636   1.409       .  A
C635        C640   1.450       .  S
C636        C637   1.418       .  A
C636        C652   1.451       .  S
C637        C638   1.413       .  A
C638        C641   1.453       .  S
C639        C642   1.410       .  A
C639        C646   1.412       .  A
C640        N657   1.157       .  T
C641        N659   1.157       .  T
C642        C643   1.404       .  A
C642        C647   1.450       .  S
C643        C644   1.407       .  A
C643        C649   1.449       .  S
C644        C645   1.406       .  A
C645        C646   1.407       .  A
C645        C648   1.448       .  S
C646        C650   1.450       .  S
C647        N654   1.157       .  T
C648        N655   1.157       .  T
C649        N653   1.157       .  T
C650        N656   1.157       .  T
C651        N660   1.157       .  T
C652        N658   1.157       .  T
C661        C662   1.403       .  A
C661        C666   1.409       .  A
C661        C679   1.450       .  S
C662        C663   1.411       .  A
C662        C667   1.486       .  S
C663        C664   1.404       .  A
C663        C668   1.455       .  S
C664        C665   1.422       .  A
C664        C680   1.453       .  S
C665        C666   1.425       .  A
C666        C669   1.451       .  S
C667        C670   1.409       .  A
C667        C674   1.408       .  A
C668        N685   1.157       .  T
C669        N687   1.157       .  T
C670        C671   1.408       .  A
C670        C675   1.449       .  S
C671        C672   1.409       .  A
C671        C677   1.450       .  S
C672        C673   1.411       .  A
C673        C674   1.403       .  A
C673        C676   1.449       .  S
C674        C678   1.452       .  S
C675        N682   1.157       .  T
C676        N683   1.157       .  T
C677        N681   1.157       .  T
C678        N684   1.157       .  T
C679        N688   1.157       .  T
C680        N686   1.158       .  T
C689        C690   1.410       .  A
C689        C694   1.408       .  A
C689        C707   1.452       .  S
C690        C691   1.410       .  A
C690        C695   1.495       .  S
C691        C692   1.413       .  A
C691        C696   1.450       .  S
C692        C693   1.415       .  A
C692        C708   1.449       .  S
C693        C694   1.414       .  A
C694        C697   1.450       .  S
C695        C698   1.412   1_565  A
C695        C702   1.413       .  A
C696        N713   1.157       .  T
C697        N715   1.156       .  T
C698        C699   1.408       .  A
C698        C703   1.450       .  S
C699        C700   1.408   1_545  A
C699        C705   1.449       .  S
C700        C701   1.407       .  A
C701        C702   1.410       .  A
C701        C704   1.449       .  S
C702        C706   1.450       .  S
C703        N710   1.157       .  T
C704        N711   1.157       .  T
C705        N709   1.157       .  T
C706        N712   1.157       .  T
C707        N716   1.157       .  T
C708        N714   1.157       .  T
C717        C718   1.416   1_545  A
C717        C722   1.421       .  A
C717        C735   1.451       .  S
C718        C719   1.415       .  A
C718        C723   1.518       .  S
C719        C720   1.411       .  A
C719        C724   1.450       .  S
C720        C721   1.417       .  A
C720        C736   1.449       .  S
C721        C722   1.423   1_565  A
C722        C725   1.448       .  S
C723        C726   1.414       .  A
C723        C730   1.414       .  A
C724        N741   1.157       .  T
C725        N743   1.157       .  T
C726        C727   1.414       .  A
C726        C731   1.451       .  S
C727        C728   1.423       .  A
C727        C733   1.449       .  S
C728        C729   1.427       .  A
C729        C730   1.420       .  A
C729        C732   1.451   1_565  S
C730        C734   1.451   1_565  S
C731        N738   1.157       .  T
C732        N739   1.158       .  T
C733        N737   1.158       .  T
C734        N740   1.157       .  T
C735        N744   1.157       .  T
C736        N742   1.157       .  T
C745        C746   1.409       .  A
C745        C750   1.419       .  A
C745        C763   1.451       .  S
C746        C747   1.410   1_565  A
C746        C751   1.511       .  S
C747        C748   1.414       .  A
C747        C752   1.452       .  S
C748        C749   1.423   1_545  A
C748        C764   1.447       .  S
C749        C750   1.429       .  A
C750        C753   1.450       .  S
C751        C754   1.409   1_565  A
C751        C758   1.410       .  A
C752        N769   1.157       .  T
C753        N771   1.158       .  T
C754        C755   1.413       .  A
C754        C759   1.451       .  S
C755        C756   1.426   1_545  A
C755        C761   1.451       .  S
C756        C757   1.425       .  A
C757        C758   1.419       .  A
C757        C760   1.449       .  S
C758        C762   1.450       .  S
C759        N766   1.157       .  T
C760        N767   1.158       .  T
C761        N765   1.157       .  T
C762        N768   1.157       .  T
C763        N772   1.157       .  T
C764        N770   1.157       .  T
C773        C774   1.414   1_565  A
C773        C778   1.412       .  A
C773        C791   1.450       .  S
C774        C775   1.413   1_556  A
C774        C779   1.503       .  S
C775        C776   1.413       .  A
C775        C780   1.450       .  S
C776        C777   1.412   1_554  A
C776        C792   1.449       .  S
C777        C778   1.410   1_545  A
C778        C781   1.449       .  S
C779        C782   1.412       .  A
C779        C786   1.412   1_556  A
C780        N797   1.157       .  T
C781        N799   1.157       .  T
C782        C783   1.412       .  A
C782        C787   1.450       .  S
C783        C784   1.413       .  A
C783        C789   1.450       .  S
C784        C785   1.415   1_556  A
C785        C786   1.413       .  A
C785        C788   1.451       .  S
C786        C790   1.451       .  S
C787        N794   1.157       .  T
C788        N795   1.157       .  T
C789        N793   1.157       .  T
C790        N796   1.157       .  T
C791        N800   1.157       .  T
C792        N798   1.157       .  T
C801        C802   1.413       .  A
C801        C806   1.409       .  A
C801        C819   1.452       .  S
C802        C803   1.412       .  A
C802        C807   1.503       .  S
C803        C804   1.415       .  A
C803        C808   1.450       .  S
C804        C805   1.415       .  A
C804        C820   1.449       .  S
C805        C806   1.415       .  A
C806        C809   1.450       .  S
C807        C810   1.412       .  A
C807        C814   1.414       .  A
C808        N825   1.157       .  T
C809        N827   1.157       .  T
C810        C811   1.408       .  A
C810        C815   1.453       .  S
C811        C812   1.410       .  A
C811        C817   1.445       .  S
C812        C813   1.412       .  A
C813        C814   1.415       .  A
C813        C816   1.448       .  S
C814        C818   1.449       .  S
C815        N822   1.157       .  T
C816        N823   1.157       .  T
C817        N821   1.156       .  T
C818        N824   1.157       .  T
C819        N828   1.157       .  T
C820        N826   1.157       .  T
C829        C830   1.412       .  A
C829        C834   1.410       .  A
C829        C847   1.451       .  S
C830        C831   1.414       .  A
C830        C835   1.503       .  S
C831        C832   1.414       .  A
C831        C836   1.450       .  S
C832        C833   1.413       .  A
C832        C848   1.449       .  S
C833        C834   1.414       .  A
C834        C837   1.450       .  S
C835        C838   1.413       .  A
C835        C842   1.413       .  A
C836        N853   1.157       .  T
C837        N855   1.157       .  T
C838        C839   1.411       .  A
C838        C843   1.451       .  S
C839        C840   1.413       .  A
C839        C845   1.449       .  S
C840        C841   1.414       .  A
C841        C842   1.413       .  A
C841        C844   1.449       .  S
C842        C846   1.450       .  S
C843        N850   1.157       .  T
C844        N851   1.157       .  T
C845        N849   1.157       .  T
C846        N852   1.157       .  T
C847        N856   1.157       .  T
C848        N854   1.157       .  T
C857        C858   1.413       .  A
C857        C862   1.414       .  A
C857        C875   1.451       .  S
C858        C859   1.412       .  A
C858        C863   1.505       .  S
C859        C860   1.414       .  A
C859        C864   1.449       .  S
C860        C861   1.412       .  A
C860        C876   1.449       .  S
C861        C862   1.414       .  A
C862        C865   1.449       .  S
C863        C866   1.410       .  A
C863        C870   1.411       .  A
C864        N881   1.157       .  T
C865        N883   1.157       .  T
C866        C867   1.415       .  A
C866        C871   1.451       .  S
C867        C868   1.420       .  A
C867        C873   1.451       .  S
C868        C869   1.418       .  A
C869        C870   1.415       .  A
C869        C872   1.451       .  S
C870        C874   1.450       .  S
C871        N878   1.157       .  T
C872        N879   1.157       .  T
C873        N877   1.157       .  T
C874        N880   1.157       .  T
C875        N884   1.157       .  T
C876        N882   1.157       .  T
C885        C886   1.412       .  A
C885        C890   1.411       .  A
C885        C903   1.452       .  S
C886        C887   1.412   1_556  A
C886        C891   1.504       .  S
C887        C888   1.413       .  A
C887        C892   1.450       .  S
C888        C889   1.418   1_554  A
C888        C904   1.449       .  S
C889        C890   1.420       .  A
C890        C893   1.450       .  S
C891        C894   1.415       .  A
C891        C898   1.417       .  A
C892        N909   1.157       .  T
C893        N911   1.158       .  T
C894        C895   1.407       .  A
C894        C899   1.452   1_556  S
C895        C896   1.408       .  A
C895        C901   1.449       .  S
C896        C897   1.406       .  A
C897        C898   1.415       .  A
C897        C900   1.447       .  S
C898        C902   1.449       .  S
C899        N906   1.157       .  T
C900        N907   1.157       .  T
C901        N905   1.157       .  T
C902        N908   1.157       .  T
C903        N912   1.157       .  T
C904        N910   1.158       .  T
C913        C914   1.414       .  A
C913        C918   1.413       .  A
C913        C931   1.451       .  S
C914        C915   1.413   1_554  A
C914        C919   1.504   1_554  S
C915        C916   1.412       .  A
C915        C920   1.450       .  S
C916        C917   1.412   1_556  A
C916        C932   1.448       .  S
C917        C918   1.413       .  A
C918        C921   1.449       .  S
C919        C922   1.410       .  A
C919        C926   1.412   1_556  A
C920        N937   1.157       .  T
C921        N939   1.157       .  T
C922        C923   1.412       .  A
C922        C927   1.453       .  S
C923        C924   1.418       .  A
C923        C929   1.446       .  S
C924        C925   1.416   1_556  A
C925        C926   1.415       .  A
C925        C928   1.449       .  S
C926        C930   1.450       .  S
C927        N934   1.157       .  T
C928        N935   1.157       .  T
C929        N933   1.156       .  T
C930        N936   1.157       .  T
C931        N940   1.157       .  T
C932        N938   1.157       .  T
C941        C942   1.413       .  A
C941        C946   1.414       .  A
C941        C959   1.451       .  S
C942        C943   1.411       .  A
C942        C947   1.514       .  S
C943        C944   1.419       .  A
C943        C948   1.451       .  S
C944        C945   1.427       .  A
C944        C960   1.450       .  S
C945        C946   1.418       .  A
C946        C949   1.444       .  S
C947        C950   1.410       .  A
C947        C954   1.411       .  A
C948        N965   1.157       .  T
C949        N967   1.155       .  T
C950        C951   1.419       .  A
C950        C955   1.451       .  S
C951        C952   1.429       .  A
C951        C957   1.450       .  S
C952        C953   1.426       .  A
C953        C954   1.414       .  A
C953        C956   1.450       .  S
C954        C958   1.451       .  S
C955        N962   1.157       .  T
C956        N963   1.158       .  T
C957        N961   1.158       .  T
C958        N964   1.157       .  T
C959        N968   1.157       .  T
C960        N966   1.158       .  T
C969        C970   1.412       .  A
C969        C974   1.419       .  A
C969        C987   1.451       .  S
C970        C971   1.413       .  A
C970        C975   1.516       .  S
C971        C972   1.417       .  A
C971        C976   1.451       .  S
C972        C973   1.425       .  A
C972        C988   1.450       .  S
C973        C974   1.425       .  A
C974        C977   1.450       .  S
C975        C978   1.412       .  A
C975        C982   1.412       .  A
C976        N993   1.157       .  T
C977        N995   1.158       .  T
C978        C979   1.420       .  A
C978        C983   1.450       .  S
C979        C980   1.423       .  A
C979        C985   1.449       .  S
C980        C981   1.426       .  A
C981        C982   1.416       .  A
C981        C984   1.451       .  S
C982        C986   1.451       .  S
C983        N990   1.157       .  T
C984        N991   1.158       .  T
C985        N989   1.158       .  T
C986        N992   1.157       .  T
C987        N996   1.157       .  T
C988        N994   1.158       .  T
C997        C998   1.413       .  A
C997       C1002   1.416       .  A
C997       C1015   1.450       .  S
C998        C999   1.412   1_554  A
C998       C1003   1.504       .  S
C999       C1000   1.411       .  A
C999       C1004   1.451       .  S
C1000      C1001   1.415   1_556  A
C1000      C1016   1.452       .  S
C1001      C1002   1.414       .  A
C1002      C1005   1.450       .  S
C1003      C1006   1.414       .  A
C1003      C1010   1.413       .  A
C1004      N1021   1.157       .  T
C1005      N1023   1.157       .  T
C1006      C1007   1.415       .  A
C1006      C1011   1.449       .  S
C1007      C1008   1.411       .  A
C1007      C1013   1.448       .  S
C1008      C1009   1.411       .  A
C1009      C1010   1.411       .  A
C1009      C1012   1.448   1_554  S
C1010      C1014   1.450   1_554  S
C1011      N1018   1.157       .  T
C1012      N1019   1.157       .  T
C1013      N1017   1.157       .  T
C1014      N1020   1.157       .  T
C1015      N1024   1.157       .  T
C1016      N1022   1.157       .  T
