geometry optimzed in LAMMPS
_audit_creation_date              2020-11-30 
_audit_creation_method            'lammps2cif' 
_symmetry_space_group_name_H-M    'P1' 
_symmetry_Int_Tables_number       1 
_symmetry_cell_setting            triclinic 
loop_ 
_symmetry_equiv_pos_as_xyz 
  x,y,z 
_cell_length_a                    34.06128237 
_cell_length_b                    33.964994783043245 
_cell_length_c                    33.905249958469845 
_cell_angle_alpha                 89.77188942835663 
_cell_angle_beta                  90.11133301810584 
_cell_angle_gamma                 89.71987998587218 
loop_ 
_atom_site_label 
_atom_site_type_symbol 
_atom_site_fract_x 
_atom_site_fract_y 
_atom_site_fract_z 
_atom_site_charge 
N1          N  0.58528436  0.64963135  0.96226716    -0.24700
N2          N  0.56918840  0.68096065  0.97908147    -0.32600
C3          C  0.59871823  0.70520267  0.99034860     0.03600
C4          C  0.63439430  0.68799220  0.97971484     0.09600
C5          C  0.62448712  0.65305893  0.96217232    -0.03500
H6          H  0.59463218  0.73258161  0.00604653     0.10300
H7          H  0.64451629  0.63065757  0.95157484     0.11500
Cu8        Cu  0.50722764  0.68673840  0.98700239     0.44200
Cu9        Cu  0.55679814  0.59932892  0.94442384     0.42000
Cu10       Cu  0.45681409  0.59477698  0.96152518     0.43900
N11         N  0.44509218  0.67898071  0.98945762    -0.32100
N12         N  0.42838995  0.64517643  0.97985719    -0.26400
C13         C  0.38935445  0.64795440  0.98428824    -0.02500
C14         C  0.38020108  0.68515121  0.99721621     0.09800
C15         C  0.41616879  0.70436121  0.00034610     0.03500
H16         H  0.36900869  0.62422249  0.97874143     0.11200
H17         H  0.42092942  0.73427022  0.01003582     0.10300
N18         N  0.48854935  0.54564686  0.94539315    -0.33600
N19         N  0.52654139  0.54728346  0.93859543    -0.25700
C20         C  0.54035809  0.51065658  0.93257914    -0.01000
C21         C  0.50930605  0.48445273  0.93582245     0.07000
C22         C  0.47684885  0.50801338  0.94381509     0.05700
H23         H  0.57102096  0.50372882  0.92804106     0.10800
H24         H  0.44724284  0.49862927  0.95013725     0.09700
N25         N  0.59810387  0.15131260  0.97896827    -0.24700
N26         N  0.58210901  0.11968462  0.99529113    -0.32600
C27         C  0.61169772  0.09593216  0.00812438     0.03600
C28         C  0.64739308  0.11362729  0.99895288     0.09600
C29         C  0.63738728  0.14843164  0.98063106    -0.03500
H30         H  0.60757582  0.06861187  0.02406363     0.10300
H31         H  0.65731104  0.17122250  0.97095799     0.11500
Cu32       Cu  0.52011741  0.11248187  0.00057288     0.44200
Cu33       Cu  0.56893110  0.20145547  0.95991627     0.42000
Cu34       Cu  0.46759451  0.20122435  0.96747576     0.43900
N35         N  0.45771444  0.11801144  0.99894882    -0.32100
N36         N  0.44023852  0.15054773  0.98604849    -0.26400
C37         C  0.40116046  0.14660440  0.98820890    -0.02500
C38         C  0.39280015  0.10995106  0.00311670     0.09800
C39         C  0.42926509  0.09230501  0.00985288     0.03500
H40         H  0.38022411  0.16931535  0.98007961     0.11200
H41         H  0.43466322  0.06330921  0.02207950     0.10300
N42         N  0.49776354  0.25178843  0.95382099    -0.33600
N43         N  0.53628839  0.25216559  0.95086391    -0.25700
C44         C  0.54818645  0.28937984  0.94463534    -0.01000
C45         C  0.51527068  0.31376901  0.94359385     0.07600
C46         C  0.48381999  0.28857248  0.94951786     0.05700
H47         H  0.57861825  0.29794727  0.94230368     0.10800
H48         H  0.45307655  0.29621089  0.95181636     0.09700
N49         N  0.73511432  0.93240534  0.59937247    -0.24700
N50         N  0.76880333  0.92404836  0.58173658    -0.32600
C51         C  0.79581115  0.91597913  0.61015393     0.03600
C52         C  0.77774294  0.91972582  0.64676482     0.09600
C53         C  0.73957055  0.93002542  0.63857990    -0.03500
H54         H  0.82610007  0.90805686  0.60462486     0.10300
H55         H  0.71640909  0.93542922  0.65971931     0.11500
Cu56       Cu  0.77458779  0.92519082  0.51935604     0.44200
Cu57       Cu  0.68300897  0.94748045  0.57230892     0.42000
Cu58       Cu  0.68375258  0.96195177  0.47114008     0.43900
N59         N  0.76720801  0.93234276  0.45747835    -0.32100
N60         N  0.73456125  0.94674277  0.44154107    -0.26400
C61         C  0.73784824  0.94711107  0.40210517    -0.02500
C62         C  0.77408556  0.93229034  0.39208060     0.09800
C63         C  0.79213513  0.92295373  0.42779169     0.03500
H64         H  0.71470630  0.95612516  0.38204923     0.11200
H65         H  0.82068278  0.90941407  0.43182983     0.10300
N66         N  0.63315428  0.96936855  0.50379263    -0.33600
N67         N  0.63293372  0.96369721  0.54223964    -0.25700
C68         C  0.59614202  0.96803412  0.55579185    -0.01000
C69         C  0.57175542  0.97667415  0.52408309     0.07600
C70         C  0.59641399  0.97732824  0.49152798     0.05700
H71         H  0.58768574  0.96351830  0.58619723     0.10800
H72         H  0.58830065  0.98226495  0.46105423     0.09700
N73         N  0.24176122  0.94552988  0.61025774    -0.24700
N74         N  0.20903269  0.93217800  0.59401431    -0.32600
C75         C  0.18453271  0.92131580  0.62364091     0.03600
C76         C  0.20306255  0.92866440  0.65956627     0.09600
C77         C  0.23905106  0.94380434  0.64967865    -0.03500
H78         H  0.15584249  0.90846541  0.61940163     0.10300
H79         H  0.26231255  0.95200068  0.66978429     0.11500
Cu80       Cu  0.20144831  0.92970451  0.53153682     0.44200
Cu81       Cu  0.29150234  0.96322055  0.58082577     0.42000
Cu82       Cu  0.28780727  0.96945280  0.47883815     0.43900
N83         N  0.20598305  0.93502650  0.46891963    -0.32100
N84         N  0.23697305  0.95088534  0.45151282    -0.26400
C85         C  0.23239769  0.94988545  0.41221300    -0.02500
C86         C  0.19698607  0.93266412  0.40363787     0.09800
C87         C  0.18084158  0.92322970  0.44021648     0.03500
H88         H  0.25429856  0.95950193  0.39123822     0.11200
H89         H  0.15352416  0.90798951  0.44549099     0.10300
N90         N  0.33947128  0.97808426  0.50940779    -0.33600
N91         N  0.34082496  0.97550475  0.54814745    -0.25700
C92         C  0.37828043  0.97837649  0.56019980    -0.01000
C93         C  0.40192034  0.98287929  0.52721782     0.07600
C94         C  0.37607724  0.98265044  0.49547652     0.05700
H95         H  0.38758683  0.97531059  0.59056983     0.10800
H96         H  0.38324022  0.98421411  0.46446340     0.09700
O97         O  0.75881034  0.84045023  0.01333120    -0.70400
O98         O  0.74287522  0.95743109  0.02597380    -0.71400
O99         O  0.74909729  0.90566826  0.96159258    -0.60000
O100        O  0.75046682  0.89191374  0.07774081    -0.68400
O101        O  0.81408931  0.90538366  0.08058366    -0.67900
O102        O  0.81407036  0.90914730  0.95899797    -0.59200
O103        O  0.80735167  0.96525375  0.02112751    -0.71700
O104        O  0.82315791  0.84925425  0.01880305    -0.70500
Cu105      Cu  0.74814077  0.89856354  0.01960577     1.04600
Cu106      Cu  0.81706273  0.90754970  0.01984558     1.04300
C107        C  0.79374732  0.82651799  0.01538964     0.95800
C108        C  0.77294474  0.97978669  0.02455678     0.95000
C109        C  0.78051911  0.90929495  0.94166165     0.87100
C110        C  0.78167790  0.89683056  0.09780828     0.93400
N111        N  0.80417066  0.91735162  0.24419044    -0.00900
C112        C  0.77970254  0.91135643  0.27530111     0.01700
C113        C  0.74370612  0.89818750  0.26264165    -0.21200
C114        C  0.74568410  0.89599218  0.22227124    -0.21400
C115        C  0.78309181  0.90785974  0.21123512     0.01600
H116        H  0.71841888  0.89161860  0.28075903     0.15400
H117        H  0.72162385  0.88797863  0.20308682     0.15400
N118        N  0.79520859  0.08926829  0.02395251    -0.00900
C119        C  0.76274366  0.11277693  0.02707112     0.01700
C120        C  0.77371083  0.15081583  0.03529639    -0.21200
C121        C  0.81404734  0.15111463  0.03688788    -0.21400
C122        C  0.82702756  0.11303866  0.02913745     0.01600
H123        H  0.75445254  0.17600240  0.03879749     0.15400
H124        H  0.83156559  0.17680748  0.04310672     0.15400
O125        O  0.94086833  0.92174661  0.84350800    -0.70400
O126        O  0.05724100  0.91305822  0.82647792    -0.71400
O127        O  0.00323043  0.97780902  0.83537522    -0.60000
O128        O  0.99497316  0.85650278  0.83436062    -0.68400
O129        O  0.98441044  0.86003872  0.76988957    -0.67900
O130        O  0.99655747  0.97677304  0.77029972    -0.59200
O131        O  0.04804754  0.91202586  0.76164776    -0.71700
O132        O  0.93258827  0.92388574  0.77855779    -0.70500
Cu133      Cu  0.99938888  0.91725572  0.83739362     1.04600
Cu134      Cu  0.99001597  0.91835065  0.76806204     1.04300
C135        C  0.91838055  0.92375258  0.81339303     0.95800
C136        C  0.07091600  0.91078950  0.79143733     0.95000
C137        C  0.00185283  0.99595617  0.80215118     0.87100
C138        C  0.98828231  0.83951839  0.80126482     0.93400
N139        N  0.00413037  0.14244515  0.83621613    -0.00900
C140        C  0.00315681  0.17432375  0.81177756     0.01700
C141        C  0.99944164  0.16287166  0.77311898    -0.21200
C142        C  0.99779560  0.12255439  0.77331675    -0.21400
C143        C  0.00094779  0.11011813  0.81232943     0.01600
H144        H  0.99796346  0.18185452  0.74742944     0.15400
H145        H  0.99359399  0.10454469  0.74743150     0.15400
N146        N  0.18116666  0.90770918  0.80913876    -0.00900
C147        C  0.20348226  0.90644591  0.77573290     0.01700
C148        C  0.24236160  0.90056554  0.78538034    -0.21200
C149        C  0.24438244  0.89816773  0.82578136    -0.21400
C150        C  0.20643591  0.90300399  0.84003152     0.01600
H151        H  0.26686738  0.89881442  0.76516416     0.15400
H152        H  0.27102433  0.89313223  0.84246061     0.15400
O153        O  0.24621295  0.83996282  0.03063243    -0.70400
O154        O  0.25046020  0.95856264  0.03450693    -0.71400
O155        O  0.24916081  0.89687970  0.09139869    -0.60000
O156        O  0.24954564  0.90167340  0.97460331    -0.68400
O157        O  0.18450053  0.90380822  0.97199833    -0.67900
O158        O  0.18414134  0.89989072  0.09384974    -0.59200
O159        O  0.18526860  0.96043306  0.03524846    -0.71700
O160        O  0.18107997  0.84334888  0.03204692    -0.70500
Cu161      Cu  0.25096152  0.89914254  0.03279957     1.04600
Cu162      Cu  0.18132049  0.90194352  0.03316133     1.04300
C163        C  0.21268141  0.82315944  0.03126777     0.95800
C164        C  0.21821711  0.97803169  0.03546462     0.95000
C165        C  0.21752471  0.89770831  0.11139081     0.87100
C166        C  0.21798936  0.90371184  0.95454370     0.93400
O167        O  0.92598783  0.92868800  0.26582280    -0.70400
O168        O  0.04030675  0.92075389  0.29178864    -0.71400
O169        O  0.98720634  0.98396747  0.27863134    -0.60000
O170        O  0.97943160  0.86630694  0.27844219    -0.68400
O171        O  0.99635423  0.86389575  0.21537889    -0.67900
O172        O  0.99788383  0.98540672  0.21416561    -0.59200
O173        O  0.05477631  0.92344336  0.22803973    -0.71700
O174        O  0.93943549  0.92469191  0.20192640    -0.70500
Cu175      Cu  0.98272327  0.92515121  0.28068910     1.04600
Cu176      Cu  0.99760473  0.92453952  0.21246169     1.04300
C177        C  0.91455994  0.92600680  0.23005161     0.95800
C178        C  0.06559973  0.92056758  0.26412471     0.95000
C179        C  0.99369804  0.00349680  0.24705437     0.87100
C180        C  0.98704359  0.84628920  0.24754567     0.93400
O181        O  0.01897945  0.15415089  0.08176758    -0.70400
O182        O  0.02075016  0.15198286  0.96264418    -0.71400
O183        O  0.96181754  0.15430090  0.02126277    -0.60000
O184        O  0.07862703  0.15360129  0.02369367    -0.68400
O185        O  0.08122829  0.08835855  0.02357781    -0.67900
O186        O  0.95926195  0.08916271  0.02393062    -0.59200
O187        O  0.02069841  0.08665124  0.96472468    -0.71700
O188        O  0.02109868  0.08881608  0.08261748    -0.70500
Cu189      Cu  0.02008843  0.15562314  0.02221208     1.04600
Cu190      Cu  0.02050289  0.08583521  0.02370217     1.04300
C191        C  0.02001108  0.12156200  0.10083983     0.95800
C192        C  0.02084462  0.11870429  0.94503371     0.95000
C193        C  0.94172216  0.12278581  0.02266684     0.87100
C194        C  0.09866546  0.12178715  0.02433968     0.93400
N195        N  0.00227280  0.14938692  0.20802512    -0.00900
C196        C  0.00306949  0.18231722  0.23075378     0.01700
C197        C  0.99875790  0.17266051  0.26989668    -0.21200
C198        C  0.99486155  0.13247913  0.27169724    -0.21400
C199        C  0.99729759  0.11818598  0.23334757     0.01600
H200        H  0.99863477  0.19270613  0.29463930     0.15400
H201        H  0.98996768  0.11600653  0.29855896     0.15400
N202        N  0.17618402  0.90879795  0.25462909    -0.00900
C203        C  0.19625360  0.90419741  0.28928630     0.01700
C204        C  0.23387956  0.89119373  0.28199184    -0.21200
C205        C  0.23744048  0.88755762  0.24184200    -0.21400
C206        C  0.20171563  0.89881687  0.22533488     0.01600
H207        H  0.25668789  0.88559769  0.30360989     0.15400
H208        H  0.26363034  0.87759342  0.22688947     0.15400
N209        N  0.24454024  0.08541204  0.01903950    -0.00900
C210        C  0.27700043  0.10853744  0.01779507     0.01700
C211        C  0.26653927  0.14768549  0.01803478    -0.21200
C212        C  0.22625899  0.14906763  0.01908541    -0.21400
C213        C  0.21286604  0.11043884  0.01964953     0.01600
H214        H  0.28610684  0.17266999  0.01663756     0.15400
H215        H  0.20897515  0.17582359  0.01787628     0.15400
O216        O  0.94837706  0.65985451  0.01384353    -0.70400
O217        O  0.06485718  0.65670430  0.01961020    -0.71400
O218        O  0.00322035  0.65153295  0.07521260    -0.60000
O219        O  0.00918917  0.66781992  0.95725322    -0.68400
O220        O  0.01164798  0.73245496  0.96640246    -0.67900
O221        O  0.00477862  0.71633528  0.08305264    -0.59200
O222        O  0.06871905  0.72133173  0.02759519    -0.71700
O223        O  0.94679313  0.72468485  0.02111804    -0.70500
Cu224      Cu  0.00644748  0.65693178  0.01600325     1.04600
Cu225      Cu  0.00799189  0.72613007  0.02477362     1.04300
C226        C  0.92882141  0.69166482  0.01733090     0.95800
C227        C  0.08545013  0.68743496  0.02503280     0.95000
C228        C  0.00281489  0.68169423  0.09766578     0.87100
C229        C  0.01147545  0.70289409  0.94342180     0.93400
N230        N  0.00168779  0.70165040  0.20870760    -0.00900
C231        C  0.00165758  0.66814487  0.23121537     0.01700
C232        C  0.99705777  0.67732719  0.27042293    -0.21200
C233        C  0.99426113  0.71753584  0.27267631    -0.21400
C234        C  0.99713170  0.73225757  0.23448540     0.01600
H235        H  0.99687232  0.65693039  0.29504262     0.15400
H236        H  0.99170867  0.73386139  0.29985286     0.15400
N237        N  0.23278133  0.71405101  0.01703135    -0.00900
C238        C  0.26407404  0.68904569  0.01668467     0.01700
C239        C  0.25172183  0.65067312  0.02013835    -0.21200
C240        C  0.21141056  0.65180342  0.02229579    -0.21400
C241        C  0.19996063  0.69111960  0.02020421     0.01600
H242        H  0.27000069  0.62451122  0.02008103     0.15400
H243        H  0.19271988  0.62619070  0.02348992     0.15400
N244        N  0.00079440  0.69191223  0.83244237    -0.00900
C245        C  0.00452376  0.66124170  0.80704743     0.01700
C246        C  0.00704281  0.67454243  0.76884122    -0.21200
C247        C  0.00433056  0.71481589  0.77033395    -0.21400
C248        C  0.99990419  0.72542411  0.80973097     0.01600
H249        H  0.01111282  0.65688157  0.74264513     0.15400
H250        H  0.00626821  0.73397424  0.74489033     0.15400
N251        N  0.80945782  0.90889795  0.79470656    -0.00900
C252        C  0.78445342  0.90761803  0.76345764     0.01700
C253        C  0.74622573  0.90448911  0.77600612    -0.21200
C254        C  0.74744010  0.90342484  0.81645971    -0.21400
C255        C  0.78660759  0.90625285  0.82768398     0.01600
H256        H  0.72022150  0.90281442  0.75769543     0.15400
H257        H  0.72222296  0.89970168  0.83543351     0.15400
N258        N  0.78167430  0.71683067  0.99846310    -0.00900
C259        C  0.75159800  0.69076572  0.99628807     0.01700
C260        C  0.76559300  0.65274008  0.99816398    -0.21200
C261        C  0.80574069  0.65523570  0.00159039    -0.21400
C262        C  0.81541329  0.69497811  0.00192992     0.01600
H263        H  0.74850676  0.62599248  0.99675646     0.15400
H264        H  0.82566204  0.63034713  0.00248194     0.15400
N265        N  0.04295061  0.49622371  0.76450888    -0.24700
N266        N  0.02787023  0.47955566  0.79644672    -0.32600
C267        C  0.01572128  0.50860839  0.82096092     0.03600
C268        C  0.02386305  0.54472485  0.80334427     0.09600
C269        C  0.04094842  0.53555724  0.76780055    -0.03500
H270        H  0.00126972  0.50382674  0.84894543     0.10300
H271        H  0.05015996  0.55608135  0.74517805     0.11500
Cu272      Cu  0.02349903  0.41748621  0.80306959     0.44200
Cu273      Cu  0.06247950  0.46717201  0.71470968     0.42000
Cu274      Cu  0.04793718  0.36556225  0.71111770     0.43900
N275        N  0.02348242  0.35525219  0.79680621    -0.32100
N276        N  0.03224068  0.33783636  0.76301461    -0.26400
C277        C  0.02976437  0.29864632  0.76730151    -0.02500
C278        C  0.01903677  0.29030606  0.80548164     0.09800
C279        C  0.01512652  0.32679109  0.82365637     0.03500
H280        H  0.03521807  0.27763690  0.74400224     0.11200
H281        H  0.00662091  0.33222348  0.85388072     0.10300
N282        N  0.06639113  0.39697075  0.66239502    -0.33600
N283        N  0.07260808  0.43518533  0.66397277    -0.25700
C284        C  0.08234950  0.44829340  0.62787226    -0.01000
C285        C  0.08218969  0.41663876  0.60203305     0.07600
C286        C  0.07200319  0.38450182  0.62524768     0.05700
H287        H  0.08769219  0.47888786  0.62094028     0.10800
H288        H  0.06725436  0.35455539  0.61572759     0.09700
N289        N  0.03481495  0.50271363  0.27209173    -0.24700
N290        N  0.02614899  0.48670190  0.23761325    -0.32600
C291        C  0.01753088  0.51637298  0.21200011     0.03600
C292        C  0.02131548  0.55207661  0.23179605     0.09600
C293        C  0.03213107  0.54202110  0.26954393    -0.03500
H294        H  0.00896954  0.51230870  0.18155107     0.10300
H295        H  0.03746329  0.56194229  0.29378769     0.11500
Cu296      Cu  0.02726999  0.42448419  0.22951102     0.44200
Cu297      Cu  0.05065611  0.47308567  0.32272357     0.42000
Cu298      Cu  0.07105039  0.37329651  0.31638741     0.43900
N299        N  0.03413451  0.36224723  0.23505277    -0.32100
N300        N  0.05147591  0.34539306  0.26589287    -0.26400
C301        C  0.05003014  0.30607943  0.26229775    -0.02500
C302        C  0.03084378  0.29697082  0.22782207     0.09800
C303        C  0.02091559  0.33322663  0.21110470     0.03500
H304        H  0.06020584  0.28549134  0.28456415     0.11200
H305        H  0.00396347  0.33809216  0.18449820     0.10300
N306        N  0.07824843  0.40365659  0.36868393    -0.33600
N307        N  0.06976602  0.44144398  0.37093797    -0.25700
C308        C  0.07349271  0.45332829  0.40844839    -0.01000
C309        C  0.08481263  0.42125671  0.43133700     0.07600
C310        C  0.08757099  0.39017982  0.40489186     0.05700
H311        H  0.06659888  0.48277248  0.41836065     0.10800
H312        H  0.09438994  0.35973600  0.41149240     0.09700
C313        C  0.08881702  0.38267819  0.53656178    -0.10800
C314        C  0.08694024  0.41770547  0.55848029     0.11400
C315        C  0.08768329  0.45382711  0.53813954    -0.10800
C316        C  0.08834462  0.45490228  0.49697442    -0.10800
C317        C  0.08828863  0.41989940  0.47499904     0.11400
C318        C  0.08951314  0.38375926  0.49532048    -0.10800
H319        H  0.08899383  0.35428232  0.55110935     0.15400
H320        H  0.08656910  0.48147933  0.55378218     0.15400
H321        H  0.08818161  0.48333458  0.48250434     0.15400
H322        H  0.08976457  0.35616191  0.47952530     0.15400
C323        C  0.01410779  0.58441506  0.81573889    -0.10700
C324        C  0.00846030  0.61971272  0.81701555    -0.12300
C325        C  0.00861165  0.62765946  0.21907637    -0.10700
C326        C  0.01401853  0.59227776  0.21903565    -0.12300
C327        C  0.12836811  0.68101496  0.03048266    -0.13900
C328        C  0.15767647  0.70442260  0.01756646    -0.29000
H329        H  0.13594904  0.65292244  0.04384529     0.15200
H330        H  0.15040447  0.73211339  0.00319543     0.15700
C331        C  0.99930972  0.67619389  0.14075152    -0.13900
C332        C  0.00637546  0.70559505  0.16640281    -0.29000
H333        H  0.98968767  0.64762649  0.15081540     0.15200
H334        H  0.01488209  0.73402097  0.15462482     0.15700
C335        C  0.88548198  0.68698065  0.01992741    -0.13900
C336        C  0.85722881  0.70947339  0.00295245    -0.29000
H337        H  0.87663052  0.65978428  0.03420682     0.15200
H338        H  0.86509975  0.73655667  0.98791170     0.15700
C339        C  0.01454480  0.70998895  0.90065893    -0.13900
C340        C  0.99635785  0.68697898  0.87445511    -0.29000
H341        H  0.03239102  0.73441370  0.89086903     0.15200
H342        H  0.98021128  0.66154449  0.88510052     0.15700
C343        C  0.01071895  0.22256928  0.21796749    -0.10700
C344        C  0.01877440  0.25740360  0.21723241    -0.12300
C345        C  0.16996475  0.09969353  0.01755852    -0.13900
C346        C  0.14197992  0.12615792  0.02769592    -0.29000
H347        H  0.16123493  0.07119875  0.00629690     0.15200
H348        H  0.15108576  0.15468553  0.03852973     0.15700
C349        C  0.02001433  0.12095346  0.14429338    -0.13900
C350        C  0.00396035  0.15009303  0.16548711    -0.29000
H351        H  0.03295698  0.09557784  0.15883927     0.15200
H352        H  0.99271188  0.17600602  0.15021937     0.15700
C353        C  0.10736376  0.91495335  0.27438250    -0.13900
C354        C  0.13607586  0.92129766  0.24812719    -0.29000
H355        H  0.11395808  0.90266079  0.30317017     0.15200
H356        H  0.12812854  0.93317077  0.21942926     0.15700
C357        C  0.99817877  0.04690846  0.25125763    -0.13900
C358        C  0.99328338  0.07505736  0.22316162    -0.29000
H359        H  0.00562028  0.05589405  0.28095315     0.15200
H360        H  0.98516880  0.06631483  0.19354757     0.15700
C361        C  0.99673202  0.77563148  0.22450492    -0.13900
C362        C  0.98471979  0.80266162  0.25123349    -0.29000
H363        H  0.00742457  0.78562848  0.19611229     0.15200
H364        H  0.97313365  0.79253938  0.27921111     0.15700
C365        C  0.21816724  0.02123886  0.03709314    -0.13900
C366        C  0.24544521  0.04293930  0.01880841    -0.29000
H367        H  0.19430032  0.03527212  0.05283923     0.15200
H368        H  0.26989570  0.02817892  0.00443377     0.15700
C369        C  0.22193361  0.89612417  0.15491343    -0.13900
C370        C  0.19297293  0.89952130  0.18177814    -0.29000
H371        H  0.25199689  0.89315948  0.16502804     0.15200
H372        H  0.16303556  0.90342384  0.17152468     0.15700
C373        C  0.20955868  0.78011666  0.03240608    -0.13900
C374        C  0.23575560  0.75636344  0.01497429    -0.29000
H375        H  0.18487859  0.76803571  0.04836305     0.15200
H376        H  0.26117913  0.76922493  0.00062194     0.15700
C377        C  0.19542728  0.90229914  0.88304924    -0.13900
C378        C  0.22310411  0.90656814  0.91116037    -0.29000
H379        H  0.16516610  0.89757496  0.89168718     0.15200
H380        H  0.25312740  0.91185891  0.90210587     0.15700
C381        C  0.00760448  0.21547939  0.82245885    -0.10700
C382        C  0.01217404  0.25085376  0.82037870    -0.12300
C383        C  0.00598707  0.14498671  0.87873148    -0.13900
C384        C  0.02116754  0.11639858  0.90161337    -0.29000
H385        H  0.99523577  0.17173035  0.89262442     0.15200
H386        H  0.03345177  0.09004240  0.88860484     0.15700
C387        C  0.11337298  0.90604665  0.78491997    -0.13900
C388        C  0.13952928  0.91451366  0.81323080    -0.29000
H389        H  0.12270469  0.89457677  0.75670304     0.15200
H390        H  0.12872590  0.92544180  0.84125984     0.15700
C391        C  0.00800724  0.03902609  0.79803797    -0.13900
C392        C  0.99834311  0.06742960  0.82422615    -0.29000
H393        H  0.01945129  0.04779797  0.76950765     0.15200
H394        H  0.98643633  0.05928064  0.85274478     0.15700
C395        C  0.98563764  0.79606692  0.79642171    -0.13900
C396        C  0.99525630  0.76767593  0.82295667    -0.29000
H397        H  0.97727627  0.78725541  0.76690018     0.15200
H398        H  0.00145362  0.77620155  0.85299788     0.15700
C399        C  0.87556028  0.92485035  0.81887440    -0.13900
C400        C  0.85157815  0.91047519  0.79097007    -0.29000
H401        H  0.86422413  0.93665205  0.84618934     0.15200
H402        H  0.86434778  0.90002683  0.76355013     0.15700
C403        C  0.89820696  0.12828901  0.02290717    -0.13900
C404        C  0.86978694  0.10085363  0.02706073    -0.29000
H405        H  0.88926271  0.15880118  0.01967019     0.15200
H406        H  0.87791413  0.06999873  0.02913605     0.15700
C407        C  0.84465514  0.92935000  0.24818935    -0.13900
C408        C  0.87247822  0.92143740  0.22120109    -0.29000
H409        H  0.85370283  0.94193898  0.27616834     0.15200
H410        H  0.86537129  0.90738947  0.19360825     0.15700
C411        C  0.76807210  0.02272489  0.02767549    -0.13900
C412        C  0.79696866  0.04745532  0.01689390    -0.29000
H413        H  0.74112681  0.03360193  0.04061443     0.15200
H414        H  0.82388189  0.03525421  0.00482468     0.15700
C415        C  0.79520673  0.91261761  0.16901106    -0.13900
C416        C  0.77853048  0.89032912  0.14083354    -0.29000
H417        H  0.81522454  0.93597759  0.16071712     0.15200
H418        H  0.75762996  0.86789918  0.14954293     0.15700
C419        C  0.77540945  0.91543670  0.89873268    -0.13900
C420        C  0.79985390  0.90361896  0.86984307    -0.29000
H421        H  0.74737078  0.92844714  0.89051246     0.15200
H422        H  0.82780078  0.89001394  0.87727722     0.15700
C423        C  0.80088624  0.78387252  0.01499840    -0.13900
C424        C  0.77630844  0.75894490  0.99721445    -0.29000
H425        H  0.82667345  0.77317270  0.03040880     0.15200
H426        H  0.74995519  0.77066028  0.98324416     0.15700
C427        C  0.19129959  0.91972499  0.69974589    -0.10700
C428        C  0.19146045  0.91365224  0.73509874    -0.12300
C429        C  0.18404467  0.91474190  0.32901098    -0.10700
C430        C  0.18447326  0.92246618  0.36399184    -0.12300
C431        C  0.79275237  0.91386324  0.68634448    -0.10700
C432        C  0.79454171  0.91052218  0.72193129    -0.12300
C433        C  0.78643124  0.92436523  0.35197974    -0.10700
C434        C  0.78807383  0.91859672  0.31671379    -0.12300
C435        C  0.50836348  0.98770121  0.55998420    -0.10800
C436        C  0.52841040  0.98053238  0.52453456     0.11400
C437        C  0.50655362  0.97572572  0.48973003    -0.10800
C438        C  0.46557854  0.97714456  0.49048560    -0.10800
C439        C  0.44544958  0.98349942  0.52605945     0.11400
C440        C  0.46736186  0.98921030  0.56073417    -0.10800
H441        H  0.52428546  0.99209277  0.58725104     0.15400
H442        H  0.52094944  0.96979835  0.46195556     0.15400
H443        H  0.44982051  0.97231089  0.46322916     0.15400
H444        H  0.45295049  0.99473351  0.58858421     0.15400
C445        C  0.68723220  0.10298358  0.01030988    -0.10700
C446        C  0.72207969  0.10283961  0.01820086    -0.12300
C447        C  0.31782077  0.09595523  0.01520381    -0.10700
C448        C  0.35324899  0.09641245  0.01114435    -0.12300
C449        C  0.67451906  0.69950064  0.98817837    -0.10700
C450        C  0.70992384  0.70001102  0.99262515    -0.12300
C451        C  0.34053896  0.69821376  0.00619539    -0.10700
C452        C  0.30529395  0.69925317  0.01176140    -0.12300
C453        C  0.47779410  0.37759137  0.94097892    -0.10800
C454        C  0.51389123  0.35738972  0.93975097     0.11400
C455        C  0.54849785  0.37941002  0.93550731    -0.10800
C456        C  0.54705100  0.42054606  0.93341601    -0.10800
C457        C  0.51095718  0.44071494  0.93556940     0.11400
C458        C  0.47635168  0.41860874  0.93887133    -0.10800
H459        H  0.45039211  0.36196304  0.94390222     0.15400
H460        H  0.57687529  0.36507784  0.93420386     0.15400
H461        H  0.57438532  0.43637104  0.93075112     0.15400
H462        H  0.44791212  0.43279894  0.94015720     0.15400
loop_ 
_geom_bond_atom_site_label_1 
_geom_bond_atom_site_label_2 
_geom_bond_distance 
_geom_bond_site_symmetry_2 
_ccdc_geom_bond_type 
N1            N2   1.326       .  A
N1            C5   1.341       .  A
N1           Cu9   2.061       .  S
N2            C3   1.358       .  A
N2           Cu8   2.136       .  S
C3            C4   1.395       .  A
C3            H6   1.082   1_556  S
C4            C5   1.373       .  A
C4          C449   1.452       .  S
C5            H7   1.082       .  S
Cu8          N11   2.136       .  S
Cu9          N19   2.061       .  S
Cu10         N12   2.061       .  S
Cu10         N18   2.060       .  S
N11          N12   1.325       .  A
N11          C15   1.359   1_556  A
N12          C13   1.341       .  A
C13          C14   1.374       .  A
C13          H16   1.082       .  S
C14          C15   1.395   1_556  A
C14         C451   1.453   1_556  S
C15          H17   1.082       .  S
N18          N19   1.316       .  A
N18          C22   1.342       .  A
N19          C20   1.344       .  A
C20          C21   1.390       .  A
C20          H23   1.081       .  S
C21          C22   1.389       .  A
C21         C457   1.486       .  S
C22          H24   1.081       .  S
N25          N26   1.326       .  A
N25          C29   1.342       .  A
N25         Cu33   2.068       .  S
N26          C27   1.358   1_556  A
N26         Cu32   2.135   1_556  S
C27          C28   1.394   1_554  A
C27          H30   1.082       .  S
C28          C29   1.374       .  A
C28         C445   1.453   1_556  S
C29          H31   1.082       .  S
Cu32         N35   2.133   1_554  S
Cu33         N43   2.067       .  S
Cu34         N36   2.058       .  S
Cu34         N42   2.057       .  S
N35          N36   1.325       .  A
N35          C39   1.358   1_556  A
N36          C37   1.341       .  A
C37          C38   1.373   1_556  A
C37          H40   1.082       .  S
C38          C39   1.394       .  A
C38         C448   1.452       .  S
C39          H41   1.082       .  S
N42          N43   1.316       .  A
N42          C46   1.342       .  A
N43          C44   1.345       .  A
C44          C45   1.391       .  A
C44          H47   1.081       .  S
C45          C46   1.389       .  A
C45         C454   1.487       .  S
C46          H48   1.081       .  S
N49          N50   1.325       .  A
N49          C53   1.340       .  A
N49         Cu57   2.058       .  S
N50          C51   1.357       .  A
N50         Cu56   2.125       .  S
C51          C52   1.393       .  A
C51          H54   1.082       .  S
C52          C53   1.372       .  A
C52         C431   1.448       .  S
C53          H55   1.082       .  S
Cu56         N59   2.125       .  S
Cu57         N67   2.057       .  S
Cu58         N60   2.067       .  S
Cu58         N66   2.065       .  S
N59          N60   1.326       .  A
N59          C63   1.356       .  A
N60          C61   1.342       .  A
C61          C62   1.375       .  A
C61          H64   1.082       .  S
C62          C63   1.392       .  A
C62         C433   1.450       .  S
C63          H65   1.082       .  S
N66          N67   1.317       .  A
N66          C70   1.344       .  A
N67          C68   1.343       .  A
C68          C69   1.387       .  A
C68          H71   1.081       .  S
C69          C70   1.388       .  A
C69         C436   1.482       .  S
C70          H72   1.081       .  S
N73          N74   1.325       .  A
N73          C77   1.341       .  A
N73         Cu81   2.059       .  S
N74          C75   1.358       .  A
N74         Cu80   2.136       .  S
C75          C76   1.395       .  A
C75          H78   1.082       .  S
C76          C77   1.373       .  A
C76         C427   1.452       .  S
C77          H79   1.082       .  S
Cu80         N83   2.136       .  S
Cu81         N91   2.058       .  S
Cu82         N84   2.065       .  S
Cu82         N90   2.063       .  S
N83          N84   1.326       .  A
N83          C87   1.358       .  A
N84          C85   1.342       .  A
C85          C86   1.374       .  A
C85          H88   1.082       .  S
C86          C87   1.394       .  A
C86         C430   1.453       .  S
C87          H89   1.082       .  S
N90          N91   1.317       .  A
N90          C94   1.344       .  A
N91          C92   1.343       .  A
C92          C93   1.388       .  A
C92          H95   1.081       .  S
C93          C94   1.389       .  A
C93         C439   1.484       .  S
C94          H96   1.081       .  S
O97        Cu105   2.017       .  S
O97         C107   1.280       .  A
O98        Cu105   2.019       .  S
O98         C108   1.279       .  A
O99        Cu105   1.981   1_556  S
O99         C109   1.273       .  A
O100       Cu105   1.984       .  S
O100        C110   1.273       .  A
O101       Cu106   2.063       .  S
O101        C110   1.284       .  A
O102       Cu106   2.066   1_556  S
O102        C109   1.284       .  A
O103       Cu106   1.987       .  S
O103        C108   1.275       .  A
O104       Cu106   1.990       .  S
O104        C107   1.273       .  A
Cu105      Cu106   2.369       .  S
C107        C423   1.468       .  S
C108        C411   1.471   1_565  S
C109        C419   1.479       .  S
C110        C416   1.479       .  S
N111        C115   1.367       .  A
N111        C112   1.361       .  A
N111        C407   1.446       .  S
C112        C113   1.376       .  A
C112        C434   1.454       .  S
C113        C114   1.373       .  A
C113        H116   1.083       .  S
C114        C115   1.390       .  A
C114        H117   1.082       .  S
C115        C415   1.499       .  S
N118        C122   1.366       .  A
N118        C119   1.365       .  A
N118        C412   1.442       .  S
C119        C120   1.376       .  A
C119        C446   1.458       .  S
C120        C121   1.375       .  A
C120        H123   1.083       .  S
C121        C122   1.391       .  A
C121        H124   1.081       .  S
C122        C404   1.514       .  S
O125       Cu133   2.010       .  S
O125        C135   1.277       .  A
O126       Cu133   2.010   1_455  S
O126        C136   1.279       .  A
O127       Cu133   2.062   1_455  S
O127        C137   1.283       .  A
O128       Cu133   2.073       .  S
O128        C138   1.284       .  A
O129       Cu134   1.991       .  S
O129        C138   1.276       .  A
O130       Cu134   2.000       .  S
O130        C137   1.276   1_655  A
O131       Cu134   2.000   1_455  S
O131        C136   1.275       .  A
O132       Cu134   1.997       .  S
O132        C135   1.277       .  A
Cu133      Cu134   2.372       .  S
C135        C399   1.471       .  S
C136        C387   1.472       .  S
C137        C391   1.485   1_565  S
C138        C395   1.489       .  S
N139        C143   1.372       .  A
N139        C140   1.361       .  A
N139        C383   1.446       .  S
C140        C141   1.374   1_455  A
C140        C381   1.454       .  S
C141        C142   1.371       .  A
C141        H144   1.083       .  S
C142        C143   1.391   1_655  A
C142        H145   1.081       .  S
C143        C392   1.507   1_455  S
N146        C150   1.363       .  A
N146        C147   1.366       .  A
N146        C388   1.443       .  S
C147        C148   1.377       .  A
C147        C428   1.456       .  S
C148        C149   1.373       .  A
C148        H151   1.083       .  S
C149        C150   1.390       .  A
C149        H152   1.081       .  S
C150        C377   1.507       .  S
O153       Cu161   2.019       .  S
O153        C163   1.279       .  A
O154       Cu161   2.019       .  S
O154        C164   1.280       .  A
O155       Cu161   1.989       .  S
O155        C165   1.274       .  A
O156       Cu161   1.975   1_556  S
O156        C166   1.272       .  A
O157       Cu162   2.078   1_556  S
O157        C166   1.286       .  A
O158       Cu162   2.061       .  S
O158        C165   1.284       .  A
O159       Cu162   1.993       .  S
O159        C164   1.274       .  A
O160       Cu162   1.991       .  S
O160        C163   1.274       .  A
Cu161      Cu162   2.374       .  S
C163        C373   1.467       .  S
C164        C365   1.469   1_565  S
C165        C369   1.484       .  S
C166        C378   1.484       .  S
O167       Cu175   1.999       .  S
O167        C177   1.277       .  A
O168       Cu175   2.001   1_455  S
O168        C178   1.275       .  A
O169       Cu175   2.005       .  S
O169        C179   1.277   1_565  A
O170       Cu175   2.004       .  S
O170        C180   1.277       .  A
O171       Cu176   2.062       .  S
O171        C180   1.283       .  A
O172       Cu176   2.068       .  S
O172        C179   1.283   1_565  A
O173       Cu176   2.017   1_455  S
O173        C178   1.280       .  A
O174       Cu176   2.013       .  S
O174        C177   1.278       .  A
Cu175      Cu176   2.369       .  S
C177        C408   1.473       .  S
C178        C353   1.475       .  S
C179        C357   1.490       .  S
C180        C362   1.489       .  S
O181       Cu189   2.020       .  S
O181        C191   1.280       .  A
O182       Cu189   2.024   1_556  S
O182        C192   1.280       .  A
O183       Cu189   1.986   1_655  S
O183        C193   1.274       .  A
O184       Cu189   1.995       .  S
O184        C194   1.275       .  A
O185       Cu190   2.071       .  S
O185        C194   1.284       .  A
O186       Cu190   2.088   1_655  S
O186        C193   1.287       .  A
O187       Cu190   2.000   1_556  S
O187        C192   1.275       .  A
O188       Cu190   2.001       .  S
O188        C191   1.275       .  A
Cu189      Cu190   2.371       .  S
C191        C349   1.473       .  S
C192        C384   1.475       .  S
C193        C403   1.493       .  S
C194        C346   1.488       .  S
N195        C199   1.373   1_455  A
N195        C196   1.361       .  A
N195        C350   1.444       .  S
C196        C197   1.374   1_455  A
C196        C343   1.457       .  S
C197        C198   1.373       .  A
C197        H200   1.083       .  S
C198        C199   1.392       .  A
C198        H201   1.081       .  S
C199        C358   1.513       .  S
N202        C206   1.364       .  A
N202        C203   1.366       .  A
N202        C354   1.445       .  S
C203        C204   1.377       .  A
C203        C429   1.456       .  S
C204        C205   1.373       .  A
C204        H207   1.083       .  S
C205        C206   1.390       .  A
C205        H208   1.081       .  S
C206        C370   1.506       .  S
N209        C213   1.370       .  A
N209        C210   1.360       .  A
N209        C366   1.443       .  S
C210        C211   1.375       .  A
C210        C447   1.456       .  S
C211        C212   1.373       .  A
C211        H214   1.083       .  S
C212        C213   1.391       .  A
C212        H215   1.081       .  S
C213        C345   1.509       .  S
O216       Cu224   1.981   1_655  S
O216        C226   1.273       .  A
O217       Cu224   1.993       .  S
O217        C227   1.274       .  A
O218       Cu224   2.018       .  S
O218        C228   1.279       .  A
O219       Cu224   2.027   1_556  S
O219        C229   1.281       .  A
O220       Cu225   1.994   1_556  S
O220        C229   1.273       .  A
O221       Cu225   2.006       .  S
O221        C228   1.277       .  A
O222       Cu225   2.076       .  S
O222        C227   1.285       .  A
O223       Cu225   2.089   1_655  S
O223        C226   1.287       .  A
Cu224      Cu225   2.371       .  S
C226        C335   1.488       .  S
C227        C327   1.488       .  S
C228        C331   1.477   1_455  S
C229        C339   1.473       .  S
N230        C234   1.369   1_455  A
N230        C231   1.368       .  A
N230        C332   1.449       .  S
C231        C232   1.376   1_455  A
C231        C325   1.455       .  S
C232        C233   1.371       .  A
C232        H235   1.083       .  S
C233        C234   1.390       .  A
C233        H236   1.081       .  S
C234        C361   1.510       .  S
N237        C241   1.370       .  A
N237        C238   1.360       .  A
N237        C374   1.443       .  S
C238        C239   1.376       .  A
C238        C452   1.458       .  S
C239        C240   1.375       .  A
C239        H242   1.083       .  S
C240        C241   1.391       .  A
C240        H243   1.081       .  S
C241        C328   1.510       .  S
N244        C248   1.372   1_455  A
N244        C245   1.360       .  A
N244        C340   1.442   1_455  S
C245        C246   1.373       .  A
C245        C324   1.455       .  S
C246        C247   1.372       .  A
C246        H249   1.083       .  S
C247        C248   1.393   1_455  A
C247        H250   1.081       .  S
C248        C396   1.513       .  S
N251        C255   1.366       .  A
N251        C252   1.359       .  A
N251        C400   1.442       .  S
C252        C253   1.375       .  A
C252        C432   1.453       .  S
C253        C254   1.372       .  A
C253        H256   1.083       .  S
C254        C255   1.390       .  A
C254        H257   1.082       .  S
C255        C420   1.500       .  S
N258        C262   1.370   1_556  A
N258        C259   1.359       .  A
N258        C424   1.442       .  S
C259        C260   1.376       .  A
C259        C450   1.457       .  S
C260        C261   1.375   1_556  A
C260        H263   1.082       .  S
C261        C262   1.391       .  A
C261        H264   1.082       .  S
C262        C336   1.510       .  S
N265        N266   1.326       .  A
N265        C269   1.342       .  A
N265       Cu273   2.068       .  S
N266        C267   1.356       .  A
N266       Cu272   2.125       .  S
C267        C268   1.392       .  A
C267        H270   1.082       .  S
C268        C269   1.375       .  A
C268        C323   1.451       .  S
C269        H271   1.082       .  S
Cu272       N275   2.125       .  S
Cu273       N283   2.067       .  S
Cu274       N276   2.065       .  S
Cu274       N282   2.064       .  S
N275        N276   1.325       .  A
N275        C279   1.357       .  A
N276        C277   1.342       .  A
C277        C278   1.375       .  A
C277        H280   1.082       .  S
C278        C279   1.392       .  A
C278        C382   1.450       .  S
C279        H281   1.082       .  S
N282        N283   1.317       .  A
N282        C286   1.344       .  A
N283        C284   1.344       .  A
C284        C285   1.390       .  A
C284        H287   1.081       .  S
C285        C286   1.389       .  A
C285        C314   1.486       .  S
C286        H288   1.081       .  S
N289        N290   1.325       .  A
N289        C293   1.340       .  A
N289       Cu297   2.056       .  S
N290        C291   1.358       .  A
N290       Cu296   2.132       .  S
C291        C292   1.395       .  A
C291        H294   1.082       .  S
C292        C293   1.373       .  A
C292        C326   1.451       .  S
C293        H295   1.082       .  S
Cu296       N299   2.133       .  S
Cu297       N307   2.056       .  S
Cu298       N300   2.071       .  S
Cu298       N306   2.069       .  S
N299        N300   1.326       .  A
N299        C303   1.358       .  A
N300        C301   1.342       .  A
C301        C302   1.375       .  A
C301        H304   1.082       .  S
C302        C303   1.393       .  A
C302        C344   1.453       .  S
C303        H305   1.082       .  S
N306        N307   1.317       .  A
N306        C310   1.345       .  A
N307        C308   1.342       .  A
C308        C309   1.388       .  A
C308        H311   1.081       .  S
C309        C310   1.391       .  A
C309        C317   1.485       .  S
C310        H312   1.081       .  S
C313        C314   1.406       .  A
C313        C318   1.399       .  A
C313        H319   1.082       .  S
C314        C315   1.405       .  A
C315        C316   1.396       .  A
C315        H320   1.081       .  S
C316        C317   1.406       .  A
C316        H321   1.081       .  S
C317        C318   1.406       .  A
C318        H322   1.081       .  S
C323        C324   1.214       .  T
C325        C326   1.215       .  T
C327        C328   1.352       .  D
C327        H329   1.084       .  S
C328        H330   1.085       .  S
C331        C332   1.349   1_655  D
C331        H333   1.080       .  S
C332        H334   1.084       .  S
C335        C336   1.352       .  D
C335        H337   1.085       .  S
C336        H338   1.085   1_554  S
C339        C340   1.339   1_455  D
C339        H341   1.082       .  S
C340        H342   1.087       .  S
C343        C344   1.216       .  T
C345        C346   1.353       .  D
C345        H347   1.085       .  S
C346        H348   1.084       .  S
C349        C350   1.340       .  D
C349        H351   1.083       .  S
C350        H352   1.087   1_455  S
C353        C354   1.341       .  D
C353        H355   1.083       .  S
C354        H356   1.085       .  S
C357        C358   1.356       .  D
C357        H359   1.083   1_655  S
C358        H360   1.084       .  S
C361        C362   1.355       .  D
C361        H363   1.084   1_655  S
C362        H364   1.083       .  S
C365        C366   1.340       .  D
C365        H367   1.083       .  S
C366        H368   1.087       .  S
C369        C370   1.349       .  D
C369        H371   1.083       .  S
C370        H372   1.084       .  S
C373        C374   1.340       .  D
C373        H375   1.082       .  S
C374        H376   1.087       .  S
C377        C378   1.348       .  D
C377        H379   1.085       .  S
C378        H380   1.084       .  S
C381        C382   1.214       .  T
C383        C384   1.341       .  D
C383        H385   1.087   1_455  S
C384        H386   1.082       .  S
C387        C388   1.341       .  D
C387        H389   1.082       .  S
C388        H390   1.086       .  S
C391        C392   1.354   1_455  D
C391        H393   1.085       .  S
C392        H394   1.085       .  S
C395        C396   1.355       .  D
C395        H397   1.084       .  S
C396        H398   1.081   1_655  S
C399        C400   1.344       .  D
C399        H401   1.082       .  S
C400        H402   1.087       .  S
C403        C404   1.354       .  D
C403        H405   1.084       .  S
C404        H406   1.085       .  S
C407        C408   1.346       .  D
C407        H409   1.087       .  S
C408        H410   1.079       .  S
C411        C412   1.347       .  D
C411        H413   1.082       .  S
C412        H414   1.086       .  S
C415        C416   1.348       .  D
C415        H417   1.085       .  S
C416        H418   1.086       .  S
C419        C420   1.348       .  D
C419        H421   1.086       .  S
C420        H422   1.085       .  S
C423        C424   1.338   1_554  D
C423        H425   1.082       .  S
C424        H426   1.087       .  S
C427        C428   1.215       .  T
C429        C430   1.216       .  T
C431        C432   1.213       .  T
C433        C434   1.214       .  T
C435        C436   1.405       .  A
C435        C440   1.398       .  A
C435        H441   1.082       .  S
C436        C437   1.405       .  A
C437        C438   1.397       .  A
C437        H442   1.082       .  S
C438        C439   1.405       .  A
C438        H443   1.081       .  S
C439        C440   1.406       .  A
C440        H444   1.082       .  S
C445        C446   1.216       .  T
C447        C448   1.215       .  T
C449        C450   1.215       .  T
C451        C452   1.216       .  T
C453        C454   1.406       .  A
C453        C458   1.395       .  A
C453        H459   1.081       .  S
C454        C455   1.406       .  A
C455        C456   1.399       .  A
C455        H460   1.081       .  S
C456        C457   1.407       .  A
C456        H461   1.081       .  S
C457        C458   1.405       .  A
C458        H462   1.081       .  S
