geometry optimzed in LAMMPS
_audit_creation_date              2020-11-30 
_audit_creation_method            'lammps2cif' 
_symmetry_space_group_name_H-M    'P1' 
_symmetry_Int_Tables_number       1 
_symmetry_cell_setting            triclinic 
loop_ 
_symmetry_equiv_pos_as_xyz 
  x,y,z 
_cell_length_a                    31.1261502 
_cell_length_b                    30.25411464998971 
_cell_length_c                    30.334412448292213 
_cell_angle_alpha                 90.64619347226144 
_cell_angle_beta                  88.9260987324686 
_cell_angle_gamma                 89.99852761350917 
loop_ 
_atom_site_label 
_atom_site_type_symbol 
_atom_site_fract_x 
_atom_site_fract_y 
_atom_site_fract_z 
_atom_site_charge 
C1          C  0.03147921  0.96402973  0.96679761     0.02900
C2          C  0.00498057  0.98320620  0.93559258     0.02900
C3          C  0.97744450  0.01560268  0.95310408     0.02900
C4          C  0.95387501  0.00100831  0.99118101     0.02900
C5          C  0.97631512  0.97388733  0.02127953     0.02900
C6          C  0.00889067  0.94681039  0.00268929     0.02900
O7          O  0.08576569  0.19236810  0.83310115    -0.79500
O8          O  0.92410926  0.33154484  0.87299332    -0.79500
O9          O  0.97072987  0.19614519  0.81643484    -0.79600
O10         O  0.02661679  0.31470350  0.80963002    -0.79500
O11         O  0.94086624  0.26003695  0.82760686    -0.79600
O12         O  0.08957972  0.28504919  0.82657224    -0.79500
O13         O  0.97991247  0.37657154  0.85930291    -0.79500
O14         O  0.03379169  0.14959966  0.85872276    -0.79600
C15         C  0.06939327  0.15350424  0.83554423     1.10200
C16         C  0.93895942  0.36988523  0.85810544     1.10000
C17         C  0.95138894  0.22914958  0.80166383     1.10200
C18         C  0.06076326  0.29488676  0.79832145     1.10100
O19         O  0.09558368  0.29410371  0.92469601    -0.79500
O20         O  0.90350006  0.22360754  0.91052558    -0.79600
O21         O  0.00729889  0.20317517  0.93938497    -0.79500
O22         O  0.00471009  0.33202996  0.93514005    -0.79500
O23         O  0.96141234  0.27819891  0.95239884    -0.79600
O24         O  0.07739642  0.19984031  0.92810511    -0.79500
O25         O  0.07429906  0.35247798  0.88876758    -0.79500
O26         O  0.93743738  0.15932299  0.89964145    -0.79600
Co27       Co  0.08315863  0.24427921  0.87857234     1.51500
Co28       Co  0.95289289  0.26774180  0.88950646     1.51700
Co29       Co  0.98812051  0.19883727  0.87910799     1.51600
Co30       Co  0.01420483  0.32280541  0.87191829     1.51500
O31         O  0.01894559  0.25694534  0.87541078    -1.41500
C32         C  0.09920901  0.33606181  0.91857006     1.10100
C33         C  0.90363147  0.18042671  0.91505192     1.10200
C34         C  0.04309533  0.18642371  0.94775270     1.10100
C35         C  0.98447240  0.30997454  0.96372690     1.10100
O36         O  0.86545278  0.07832727  0.16805608    -0.79500
O37         O  0.85254776  0.91064729  0.32763429    -0.79500
O38         O  0.80624253  0.95975683  0.20855585    -0.79600
O39         O  0.82143694  0.05506726  0.30388727    -0.79500
O40         O  0.83648964  0.90230343  0.23924011    -0.79600
O41         O  0.82208549  0.03803929  0.23396240    -0.79500
O42         O  0.81962328  0.97295035  0.34279685    -0.79500
O43         O  0.83547483  0.01695026  0.14596425    -0.79600
C44         C  0.84148633  0.05854628  0.13962213     1.10200
C45         C  0.82538918  0.93236268  0.35175460     1.10000
C46         C  0.80336956  0.92371404  0.22773314     1.10200
C47         C  0.80250284  0.05305209  0.26741409     1.10100
O48         O  0.89015578  0.10589995  0.26787648    -0.79500
O49         O  0.92899955  0.90857641  0.21567642    -0.79600
O50         O  0.92110978  0.98889830  0.16719355    -0.79500
O51         O  0.90901323  0.97601438  0.35350908    -0.79500
O52         O  0.94077581  0.93057139  0.30545287    -0.79600
O53         O  0.94311072  0.04041635  0.21290543    -0.79500
O54         O  0.91408354  0.06432517  0.32032525    -0.79500
O55         O  0.88062046  0.91479725  0.16528898    -0.79600
Co56       Co  0.88300789  0.05159738  0.22928931     1.51500
Co57       Co  0.88937597  0.92022092  0.27010336     1.51700
Co58       Co  0.86390687  0.97608930  0.19218919     1.51600
Co59       Co  0.86726264  0.01507195  0.32332290     1.51500
O60         O  0.87958886  0.98920914  0.25817184    -1.41500
C61         C  0.91103068  0.10293252  0.30315118     1.10100
C62         C  0.91489436  0.89553585  0.17825851     1.10200
C63         C  0.95063525  0.01326438  0.18211174     1.10100
C64         C  0.93455098  0.94425604  0.34455136     1.10100
C65         C  0.96880767  0.98087513  0.54207458     0.02900
C66         C  0.97067494  0.97835070  0.49599360     0.02900
C67         C  0.98084781  0.01716963  0.47387143     0.02900
C68         C  0.00757217  0.04890053  0.49470292     0.02900
C69         C  0.00566757  0.05078248  0.54093446     0.02900
C70         C  0.99631257  0.01153656  0.56272242     0.02900
O71         O  0.10719923  0.82691168  0.64841339    -0.79500
O72         O  0.91596059  0.67605846  0.65272335    -0.79500
O73         O  0.95792463  0.81997557  0.68277237    -0.89200
O74         O  0.02247452  0.69993560  0.68447202    -0.79500
O75         O  0.95949725  0.74821340  0.68876178    -0.79600
O76         O  0.06488571  0.75694905  0.67629855    -0.79500
O77         O  0.97586737  0.63714945  0.64025910    -0.79500
O78         O  0.04155885  0.85415359  0.65999381    -0.79600
C79         C  0.08358269  0.85776663  0.66514809     1.10200
C80         C  0.93596198  0.63809059  0.65528025     1.10000
C81         C  0.95295705  0.78568192  0.70549252     1.10200
C82         C  0.05023697  0.72597930  0.69897486     1.10100
O83         O  0.10256859  0.74059812  0.59136850    -0.79500
O84         O  0.89129118  0.77382020  0.62079319    -0.79600
O85         O  0.00420979  0.84575257  0.56648205    -0.79500
O86         O  0.99247811  0.68599303  0.56026278    -0.79500
O87         O  0.92980052  0.71512182  0.56819548    -0.79600
O88         O  0.06979096  0.83226408  0.57191993    -0.79500
O89         O  0.06757815  0.67672852  0.60257407    -0.79500
O90         O  0.92679518  0.82716982  0.58994410    -0.79600
Co91       Co  0.06305798  0.78879379  0.62240557     1.51500
Co92       Co  0.94661693  0.73243870  0.62818441     1.51700
Co93       Co  0.98378835  0.82978498  0.62424867     1.51600
Co94       Co  0.00527366  0.69694433  0.62194977     1.51500
O95         O  0.00335141  0.76490699  0.60751567    -1.41500
C96         C  0.10196326  0.69755573  0.58914655     1.10100
C97         C  0.89046906  0.80880307  0.59627559     1.10200
C98         C  0.04054603  0.86128639  0.56909572     1.10100
C99         C  0.95532396  0.69167873  0.54591377     1.10100
O100        O  0.16919432  0.87545308  0.08226100    -0.79500
O101        O  0.31170411  0.83400086  0.89534916    -0.79500
O102        O  0.17184724  0.80833497  0.94313163    -0.79600
O103        O  0.29013465  0.80641326  0.02346199    -0.79500
O104        O  0.24157902  0.79316278  0.94366302    -0.79600
O105        O  0.24220182  0.83071409  0.07173781    -0.79500
O106        O  0.34472363  0.84462085  0.95889648    -0.79500
O107        O  0.15284505  0.82665900  0.03138764    -0.79600
C108        C  0.14572075  0.84201264  0.07015742     1.10200
C109        C  0.34734664  0.83261124  0.91706774     1.10000
C110        C  0.20338043  0.78256674  0.93429736     1.10200
C111        C  0.26424701  0.79952137  0.05509918     1.10100
O112        O  0.25887816  0.91490298  0.10504744    -0.79500
O113        O  0.21654040  0.86620169  0.88227052    -0.79600
O114        O  0.15231543  0.91976157  0.01150248    -0.79500
O115        O  0.30635915  0.92797916  0.98207587    -0.79500
O116        O  0.27416726  0.91480916  0.92003392    -0.79600
O117        O  0.21318097  0.95036460  0.03256727    -0.79500
O118        O  0.31629691  0.89277763  0.06600270    -0.79500
O119        O  0.16701411  0.90156439  0.92187702    -0.79600
Co120      Co  0.23002371  0.89075276  0.05182886     1.51500
Co121      Co  0.25984915  0.85416775  0.93336008     1.51700
Co122      Co  0.16470522  0.86417841  0.97765657     1.51600
Co123      Co  0.29439605  0.86806270  0.00376809     1.51500
O124        O  0.22803106  0.87091983  0.98874529    -1.41500
C125        C  0.30011166  0.91154348  0.10186815     1.10100
C126        C  0.18476661  0.89399225  0.88419129     1.10200
C127        C  0.17635223  0.95354158  0.01574042     1.10100
C128        C  0.29675020  0.93932765  0.94350725     1.10100
O129        O  0.97903988  0.85057634  0.15180733    -0.79500
O130        O  0.03606714  0.65610169  0.17609031    -0.79500
O131        O  0.94542510  0.76155681  0.18847430    -0.79600
O132        O  0.07439770  0.73726925  0.17911215    -0.79500
O133        O  0.95027082  0.68779107  0.19194773    -0.79600
O134        O  0.03210520  0.79337274  0.19489828    -0.79500
O135        O  0.09046081  0.66326784  0.13012817    -0.79500
O136        O  0.91401319  0.82671171  0.13403777    -0.79600
C137        C  0.93709167  0.85653108  0.15226700     1.10200
C138        C  0.07296108  0.64175522  0.16248621     1.10000
C139        C  0.93397586  0.72471298  0.20424570     1.10200
C140        C  0.05631662  0.76307929  0.20706318     1.10100
O141        O  0.07988163  0.83727144  0.12167761    -0.79500
O142        O  0.92922630  0.66856479  0.10293705    -0.79600
O143        O  0.95368873  0.78259325  0.06189436    -0.79500
O144        O  0.04746685  0.71468026  0.05577006    -0.79500
O145        O  0.01580010  0.65515607  0.08182762    -0.79600
O146        O  0.01880734  0.80749135  0.06873719    -0.79500
O147        O  0.10747908  0.77506557  0.09307965    -0.79500
O148        O  0.89980178  0.73453751  0.10489463    -0.79600
Co149      Co  0.02497699  0.79985372  0.13205634     1.51500
Co150      Co  0.98452559  0.67196765  0.13788772     1.51700
Co151      Co  0.95011619  0.77357237  0.12500274     1.51600
Co152      Co  0.06563761  0.72626024  0.11584470     1.51500
O153        O  0.00108298  0.73636876  0.12496094    -1.41500
C154        C  0.11001914  0.81767209  0.09828860     1.10100
C155        C  0.89748079  0.69361725  0.09490471     1.10200
C156        C  0.98754921  0.79718260  0.04475372     1.10100
C157        C  0.02404663  0.68138056  0.04999533     1.10100
C158        C  0.25593802  0.77801929  0.24384467     0.02900
C159        C  0.22751948  0.75628231  0.21466213     0.02900
C160        C  0.19985113  0.72473458  0.23341758     0.02900
C161        C  0.21900793  0.69867395  0.26509035     0.02900
C162        C  0.23978433  0.72322016  0.29767627     0.02900
C163        C  0.26976778  0.75400756  0.28107760     0.02900
O164        O  0.13736259  0.63672992  0.54448996    -0.79500
O165        O  0.36224784  0.64675355  0.47992889    -0.79500
O166        O  0.27204450  0.68414755  0.58461394    -0.79600
O167        O  0.23698808  0.68733548  0.46360281    -0.79500
O168        O  0.29573033  0.69478671  0.51798266    -0.79600
O169        O  0.17154433  0.66018871  0.46193549    -0.79500
O170        O  0.31683365  0.66345586  0.42781242    -0.79500
O171        O  0.18145757  0.67955869  0.57980110    -0.79600
C172        C  0.14247233  0.67028442  0.57000821     1.10200
C173        C  0.35620752  0.66376176  0.44147094     1.10000
C174        C  0.27884762  0.70977151  0.55283014     1.10200
C175        C  0.19782474  0.69212745  0.45597790     1.10100
O176        O  0.18908935  0.56529796  0.44103111    -0.79500
O177        O  0.33429603  0.61960885  0.57370799    -0.79600
O178        O  0.19072007  0.58635794  0.59725870    -0.79500
O179        O  0.29454114  0.57503102  0.43699688    -0.79500
O180        O  0.31735569  0.56768907  0.50358562    -0.79600
O181        O  0.17861250  0.55087183  0.53416935    -0.79500
O182        O  0.22147331  0.61468852  0.40186897    -0.79500
O183        O  0.27763872  0.59049171  0.60595690    -0.79600
Co184      Co  0.17700925  0.60452955  0.49749796     1.51500
Co185      Co  0.30596112  0.63028675  0.51125147     1.51700
Co186      Co  0.23170207  0.63427496  0.58584710     1.51600
Co187      Co  0.26153933  0.63000413  0.45288634     1.51500
O188        O  0.24114334  0.61734608  0.51869116    -1.41500
C189        C  0.19685751  0.58106705  0.40243667     1.10100
C190        C  0.31839810  0.59516636  0.60499798     1.10200
C191        C  0.17451847  0.55460188  0.57585175     1.10100
C192        C  0.31656983  0.55417248  0.46450593     1.10100
C193        C  0.25474731  0.74312521  0.71351381     0.02900
C194        C  0.22424887  0.76418128  0.68889398     0.02900
C195        C  0.19290339  0.78685380  0.71415746     0.02900
C196        C  0.21222359  0.81450727  0.74663852     0.02900
C197        C  0.24171118  0.79182579  0.77437729     0.02900
C198        C  0.27075243  0.76416914  0.75089731     0.02900
O199        O  0.42294624  0.83186969  0.87692760    -0.79500
O200        O  0.58468435  0.68045127  0.90229752    -0.79500
O201        O  0.45977369  0.72863713  0.93898863    -0.79600
O202        O  0.55042864  0.83320492  0.93680288    -0.79500
O203        O  0.48864013  0.66576682  0.91670093    -0.79600
O204        O  0.48657648  0.83651489  0.91289835    -0.79500
O205        O  0.60464769  0.74266203  0.93410444    -0.79500
O206        O  0.39506274  0.76946522  0.90062992    -0.79600
C207        C  0.39073360  0.81098329  0.89656774     1.10200
C208        C  0.61209096  0.70217496  0.92519933     1.10000
C209        C  0.46356291  0.68817067  0.94305476     1.10200
C210        C  0.51999103  0.85628252  0.92344150     1.10100
O211        O  0.54059156  0.84654196  0.82519575    -0.79500
O212        O  0.48516845  0.66383466  0.82011840    -0.79600
O213        O  0.43195310  0.74348142  0.81725848    -0.79500
O214        O  0.55703820  0.76314769  0.83814858    -0.79500
O215        O  0.56907895  0.69653587  0.81646925    -0.79600
O216        O  0.46025841  0.80633787  0.79661208    -0.79500
O217        O  0.59715065  0.82925095  0.86561019    -0.79500
O218        O  0.42829233  0.67086364  0.86135575    -0.79600
Co219      Co  0.48746046  0.81045143  0.85409557     1.51500
Co220      Co  0.52923573  0.68309199  0.86516201     1.51700
Co221      Co  0.44634024  0.73420982  0.87862965     1.51600
Co222      Co  0.56403990  0.78086145  0.89918659     1.51500
O223        O  0.50898037  0.75025294  0.87480576    -1.41500
C224        C  0.58091548  0.85267491  0.83489180     1.10100
C225        C  0.44867562  0.64862564  0.83183214     1.10200
C226        C  0.43704871  0.77327396  0.78891380     1.10100
C227        C  0.58124674  0.73591106  0.81911039     1.10100
C228        C  0.78023261  0.24750378  0.79174339     0.02900
C229        C  0.81010876  0.27739361  0.77334765     0.02900
C230        C  0.79059636  0.31565928  0.75732057     0.02900
C231        C  0.76095384  0.30367624  0.72447748     0.02900
C232        C  0.72868004  0.27479917  0.74104074     0.02900
C233        C  0.74357356  0.23880364  0.76616406     0.02900
O234        O  0.91509653  0.44746966  0.84877846    -0.79500
O235        O  0.91485100  0.55703807  0.65988321    -0.79500
O236        O  0.90644329  0.41928433  0.71780008    -0.79600
O237        O  0.90797990  0.57873048  0.80461986    -0.79500
O238        O  0.93465918  0.48605838  0.71738576    -0.79600
O239        O  0.93146259  0.51219623  0.79659765    -0.79500
O240        O  0.89103161  0.59987213  0.71460826    -0.79500
O241        O  0.88351799  0.40057930  0.80526659    -0.79600
C242        C  0.91001130  0.40750688  0.83727459     1.10200
C243        C  0.91294183  0.59611602  0.67724124     1.10000
C244        C  0.93851423  0.44477189  0.71174651     1.10200
C245        C  0.93799721  0.55058361  0.80957681     1.10100
O246        O  0.86147981  0.54133814  0.86900987    -0.79500
O247        O  0.86687196  0.46395393  0.65130700    -0.79600
O248        O  0.79810580  0.44357890  0.78374791    -0.79500
O249        O  0.80053871  0.57194874  0.73488804    -0.79500
O250        O  0.82905079  0.54072296  0.67562622    -0.79600
O251        O  0.82772099  0.46128424  0.84674769    -0.79500
O252        O  0.81401445  0.56823717  0.82522612    -0.79500
O253        O  0.81741698  0.43222972  0.69219232    -0.79600
Co254      Co  0.87757944  0.49417107  0.82247753     1.51500
Co255      Co  0.88239696  0.51436498  0.69863045     1.51700
Co256      Co  0.85137347  0.43148215  0.75092918     1.51600
Co257      Co  0.85358133  0.57178941  0.76867255     1.51500
O258        O  0.85805924  0.50047423  0.75876630    -1.41500
C259        C  0.82690589  0.56390206  0.86475125     1.10100
C260        C  0.83447943  0.43676363  0.65338775     1.10200
C261        C  0.79626351  0.44642394  0.82546063     1.10100
C262        C  0.79948081  0.56299335  0.69419748     1.10100
O263        O  0.97460356  0.14245453  0.32766779    -0.79500
O264        O  0.02643151  0.35166080  0.35789842    -0.79500
O265        O  0.92586812  0.25493908  0.30674271    -0.79600
O266        O  0.09072055  0.22156565  0.30444378    -0.79500
O267        O  0.96862187  0.31046322  0.29704128    -0.79600
O268        O  0.05576891  0.15838780  0.30238704    -0.79500
O269        O  0.08072233  0.31177068  0.33166440    -0.79500
O270        O  0.91298113  0.17785489  0.33620423    -0.79600
C271        C  0.93388814  0.14372287  0.32286575     1.10200
C272        C  0.06213720  0.35024546  0.33651361     1.10000
C273        C  0.94007737  0.28538311  0.28279680     1.10200
C274        C  0.08534661  0.18275448  0.28861962     1.10100
O275        O  0.08767598  0.17678180  0.39078060    -0.79500
O276        O  0.92460306  0.32477119  0.38396385    -0.79600
O277        O  0.93827665  0.19541081  0.41976254    -0.79500
O278        O  0.05230099  0.27895043  0.41888221    -0.79500
O279        O  0.98295832  0.27522224  0.41670576    -0.79600
O280        O  0.00347408  0.18107011  0.41531582    -0.79500
O281        O  0.12632692  0.23725187  0.38620505    -0.79500
O282        O  0.88617768  0.26307110  0.39036590    -0.79600
Co283      Co  0.02738371  0.17104774  0.35823437     1.51500
Co284      Co  0.98427763  0.30014907  0.35837722     1.51700
Co285      Co  0.93948951  0.23250171  0.36478362     1.51600
Co286      Co  0.06790278  0.24931030  0.36103369     1.51500
O287        O  0.00551831  0.23573100  0.34358114    -1.41500
C288        C  0.12337291  0.19721232  0.40013489     1.10100
C289        C  0.88944598  0.30523323  0.39772040     1.10200
C290        C  0.96699948  0.16665215  0.42161901     1.10100
C291        C  0.01581356  0.28597611  0.43703623     1.10100
C292        C  0.22455450  0.25678786  0.23267717     0.02900
C293        C  0.23436820  0.21459845  0.24763545     0.02900
C294        C  0.27514455  0.21034791  0.26587616     0.02900
C295        C  0.30693384  0.23119069  0.23904906     0.02900
C296        C  0.29735915  0.27310203  0.22275972     0.02900
C297        C  0.25588339  0.27809344  0.20634288     0.02900
O298        O  0.13343854  0.35641676  0.98998803    -0.79500
O299        O  0.34692658  0.32571027  0.01362585    -0.79500
O300        O  0.25155936  0.36801393  0.90705576    -0.79600
O301        O  0.24547273  0.33802999  0.07811589    -0.79500
O302        O  0.26798217  0.31798476  0.95486610    -0.79600
O303        O  0.20863822  0.31891162  0.01908991    -0.79500
O304        O  0.32460776  0.35406431  0.07851666    -0.79500
O305        O  0.16480547  0.38780108  0.93254549    -0.79600
C306        C  0.13282206  0.36328428  0.94845423     1.10200
C307        C  0.35288341  0.32904195  0.05630371     1.10000
C308        C  0.24702856  0.32976728  0.92131458     1.10200
C309        C  0.22988841  0.30893313  0.05258975     1.10100
O310        O  0.16786484  0.39332608  0.07607591    -0.79500
O311        O  0.32707981  0.39052506  0.91916581    -0.79600
O312        O  0.20959952  0.47569117  0.96128349    -0.79500
O313        O  0.31416055  0.43510439  0.07107374    -0.79500
O314        O  0.33688618  0.41637274  0.00373818    -0.79600
O315        O  0.16645797  0.44095600  0.00712188    -0.79500
O316        O  0.22461305  0.42840975  0.10231579    -0.79500
O317        O  0.28629847  0.45022893  0.91973091    -0.79600
Co318      Co  0.18889148  0.37990893  0.01030703     1.51500
Co319      Co  0.30264876  0.36660693  0.98163719     1.51700
Co320      Co  0.22906798  0.42019039  0.93581996     1.51600
Co321      Co  0.26793136  0.39466375  0.06189153     1.51500
O322        O  0.24912878  0.40062767  0.99831354    -1.41500
C323        C  0.18371697  0.42112088  0.10455717     1.10100
C324        C  0.31732589  0.42836769  0.90110142     1.10200
C325        C  0.18027229  0.47626047  0.98992482     1.10100
C326        C  0.34307289  0.43287424  0.04163359     1.10100
C327        C  0.21231209  0.26171203  0.76198300     0.02900
C328        C  0.18661350  0.23002705  0.74230351     0.02900
C329        C  0.20949704  0.19424524  0.72405896     0.02900
C330        C  0.24147825  0.20997847  0.69430581     0.02900
C331        C  0.27085704  0.23990294  0.71446400     0.02900
C332        C  0.25174745  0.27225937  0.74240534     0.02900
O333        O  0.57675435  0.32391126  0.59130846    -0.79500
O334        O  0.43399492  0.18356239  0.59216583    -0.79500
O335        O  0.58459556  0.20069519  0.60335375    -0.79600
O336        O  0.45629386  0.26807946  0.57508761    -0.79500
O337        O  0.52135135  0.19649907  0.57573738    -0.79600
O338        O  0.48644378  0.33368003  0.57794200    -0.79500
O339        O  0.38933462  0.23481323  0.61522200    -0.79500
O340        O  0.61827916  0.28674532  0.63464552    -0.79600
C341        C  0.61533584  0.31435274  0.60333130     1.10200
C342        C  0.39519695  0.19997061  0.59140985     1.10000
C343        C  0.55760929  0.17975164  0.58041959     1.10200
C344        C  0.47457807  0.29979261  0.55607912     1.10100
O345        O  0.47388014  0.35810655  0.67380432    -0.79500
O346        O  0.53258256  0.15434922  0.66928929    -0.79600
O347        O  0.55607311  0.26652587  0.71051777    -0.79500
O348        O  0.43648209  0.25047578  0.69864435    -0.79500
O349        O  0.45295783  0.18208871  0.68170141    -0.79600
O350        O  0.55681549  0.33462836  0.68576146    -0.79500
O351        O  0.41257733  0.33137377  0.65212820    -0.79500
O352        O  0.59048708  0.19225836  0.68610735    -0.79600
Co353      Co  0.52145877  0.33153013  0.63219980     1.51500
Co354      Co  0.49040847  0.19917471  0.63217542     1.51700
Co355      Co  0.56875057  0.24501360  0.65133238     1.51600
Co356      Co  0.43989457  0.27244945  0.63807470     1.51500
O357        O  0.50566453  0.26443756  0.64134342    -1.41500
C358        C  0.43271223  0.35999134  0.67452302     1.10100
C359        C  0.57111428  0.15504468  0.68665454     1.10200
C360        C  0.56486909  0.30688957  0.71572873     1.10100
C361        C  0.43416752  0.20978544  0.70674908     1.10100
O362        O  0.33215624  0.97037392  0.14977132    -0.79500
O363        O  0.34428696  0.00686922  0.35011557    -0.79500
O364        O  0.33308058  0.90223236  0.24889595    -0.79600
O365        O  0.33753745  0.04408186  0.25448625    -0.79500
O366        O  0.31363730  0.96883616  0.27097405    -0.79600
O367        O  0.34945008  0.05354220  0.18451183    -0.79500
O368        O  0.37749306  0.06828223  0.32924224    -0.79500
O369        O  0.35480642  0.90331148  0.16002806    -0.79600
C370        C  0.33023542  0.92939827  0.13940531     1.10200
C371        C  0.35132017  0.04914160  0.35715089     1.10000
C372        C  0.30415791  0.93125303  0.25720066     1.10200
C373        C  0.33305976  0.06589699  0.22045107     1.10100
O374        O  0.43779070  0.04973145  0.17045951    -0.79500
O375        O  0.37567453  0.90747507  0.31998109    -0.79600
O376        O  0.44341599  0.90580720  0.18071551    -0.79500
O377        O  0.45392290  0.02903564  0.29607088    -0.79500
O378        O  0.42707791  0.97008982  0.32136189    -0.79600
O379        O  0.42351631  0.95989538  0.13627613    -0.79500
O380        O  0.42181286  0.08470695  0.23300285    -0.79500
O381        O  0.42496556  0.88933107  0.27114529    -0.79600
Co382      Co  0.38674295  0.00505078  0.16697020     1.51500
Co383      Co  0.37077259  0.97359316  0.29434909     1.51700
Co384      Co  0.39014381  0.90712822  0.21743523     1.51600
Co385      Co  0.39580133  0.03301341  0.27249216     1.51500
O386        O  0.39740354  0.97627971  0.23002340    -1.41500
C387        C  0.43878683  0.08596478  0.19368393     1.10100
C388        C  0.40706062  0.88081188  0.30834009     1.10200
C389        C  0.44297255  0.92364853  0.14301112     1.10100
C390        C  0.45142084  0.00197552  0.32667836     1.10100
C391        C  0.53728089  0.01353366  0.56907239     0.02900
C392        C  0.55374168  0.97066639  0.56341267     0.02900
C393        C  0.55164860  0.95276484  0.52079921     0.02900
C394        C  0.51281971  0.96155807  0.50204567     0.02900
C395        C  0.50046004  0.00508107  0.50054218     0.02900
C396        C  0.50498436  0.02845805  0.53936847     0.02900
O397        O  0.39183702  0.71388252  0.38411060    -0.79500
O398        O  0.61512700  0.75446549  0.40365771    -0.79500
O399        O  0.51662590  0.64416959  0.42012254    -0.79600
O400        O  0.50054902  0.78682283  0.43473869    -0.79500
O401        O  0.55043001  0.70394768  0.44584897    -0.79600
O402        O  0.43251251  0.78311463  0.42433326    -0.79500
O403        O  0.57686326  0.81576415  0.39444055    -0.79500
O404        O  0.43130831  0.66296740  0.41494088    -0.79600
C405        C  0.39484056  0.68175228  0.41197226     1.10200
C406        C  0.61280065  0.79705840  0.40794574     1.10000
C407        C  0.53874726  0.66400531  0.44912215     1.10200
C408        C  0.46370541  0.79939384  0.44442226     1.10100
O409        O  0.40119481  0.80524750  0.34335706    -0.79500
O410        O  0.58482370  0.66488051  0.36418783    -0.79600
O411        O  0.44238592  0.66589330  0.31825641    -0.79500
O412        O  0.52676007  0.79525638  0.31056129    -0.79500
O413        O  0.57055685  0.74273687  0.32532640    -0.79600
O414        O  0.45115452  0.73635601  0.30459428    -0.79500
O415        O  0.46488517  0.83650275  0.34655792    -0.79500
O416        O  0.52943582  0.63929411  0.32735891    -0.79600
Co417      Co  0.44142101  0.75802217  0.36431938     1.51500
Co418      Co  0.55890108  0.72639041  0.38589822     1.51700
Co419      Co  0.48082578  0.65783972  0.36977728     1.51600
Co420      Co  0.51395305  0.79074996  0.37260556     1.51500
O421        O  0.49566309  0.72351219  0.37435005    -1.41500
C422        C  0.42431119  0.83956355  0.33552603     1.10100
C423        C  0.56901581  0.63540872  0.33750731     1.10200
C424        C  0.43526829  0.69969734  0.29474270     1.10100
C425        C  0.55600821  0.77040759  0.29857651     1.10100
O426        O  0.62431844  0.88298319  0.77238431    -0.79500
O427        O  0.62982122  0.11375379  0.72911035    -0.79500
O428        O  0.58336670  0.01668710  0.82946554    -0.79600
O429        O  0.58043645  0.97565838  0.67452764    -0.79500
O430        O  0.59829479  0.07933689  0.79815170    -0.79600
O431        O  0.57375146  0.94406229  0.74000800    -0.79500
O432        O  0.58423400  0.07263281  0.69238675    -0.79500
O433        O  0.61246021  0.92891592  0.82918952    -0.79600
C434        C  0.60816449  0.88935554  0.81133857     1.10200
C435        C  0.59570193  0.11178598  0.70446622     1.10000
C436        C  0.57393728  0.05629917  0.82145563     1.10200
C437        C  0.56388150  0.94637756  0.70064809     1.10100
O438        O  0.64900344  0.91625269  0.68259938    -0.79500
O439        O  0.68138108  0.09965188  0.81678887    -0.79600
O440        O  0.70109886  0.97371034  0.81215681    -0.79500
O441        O  0.67772580  0.06503058  0.67773464    -0.79500
O442        O  0.70652406  0.04790155  0.74049371    -0.79600
O443        O  0.69495618  0.93890735  0.74947587    -0.79500
O444        O  0.67088405  0.97765265  0.65171008    -0.79500
O445        O  0.66520272  0.03926896  0.85578789    -0.79600
Co446      Co  0.63419144  0.94204528  0.74627070     1.51500
Co447      Co  0.65312144  0.06232638  0.77091082     1.51700
Co448      Co  0.63887898  0.99177798  0.80957903     1.51600
Co449      Co  0.62779485  0.02198364  0.67797395     1.51500
O450        O  0.63377637  0.00752698  0.74235549    -1.41500
C451        C  0.66924954  0.93561448  0.65048838     1.10100
C452        C  0.68215281  0.07928138  0.85399210     1.10200
C453        C  0.71810575  0.95305484  0.77965681     1.10100
C454        C  0.70841480  0.06880433  0.70520147     1.10100
C455        C  0.48657326  0.04265723  0.94238998     0.02900
C456        C  0.48026680  0.00217781  0.92167834     0.02900
C457        C  0.45507156  0.97056774  0.94408772     0.02900
C458        C  0.46258593  0.96637588  0.98970520     0.02900
C459        C  0.47636291  0.00470113  0.01203492     0.02900
C460        C  0.49610210  0.03985780  0.98772387     0.02900
O461        O  0.40440992  0.26416650  0.07325732    -0.79500
O462        O  0.60162234  0.23596207  0.08914171    -0.79500
O463        O  0.49919422  0.33992046  0.07218671    -0.79600
O464        O  0.50823609  0.16687621  0.07851065    -0.79500
O465        O  0.56123704  0.30956197  0.06385796    -0.79600
O466        O  0.44000879  0.17682211  0.07268632    -0.79500
O467        O  0.58036391  0.17563041  0.12340798    -0.79500
O468        O  0.42050409  0.32592704  0.10625819    -0.79600
C469        C  0.39457836  0.30511456  0.07988914     1.10200
C470        C  0.60807356  0.19526079  0.09731365     1.10000
C471        C  0.53765440  0.34283691  0.06065035     1.10200
C472        C  0.47201246  0.15129859  0.07057085     1.10100
O473        O  0.43702575  0.16645104  0.16565247    -0.79500
O474        O  0.60693645  0.32104103  0.14070774    -0.79600
O475        O  0.47254304  0.29772025  0.18808849    -0.79500
O476        O  0.51908750  0.21080015  0.19844138    -0.79500
O477        O  0.57201755  0.25321284  0.17812384    -0.79600
O478        O  0.41362127  0.26571884  0.16820039    -0.79500
O479        O  0.49975195  0.13131983  0.16266035    -0.79500
O480        O  0.54330626  0.34629510  0.16141230    -0.79600
Co481      Co  0.43345160  0.22283034  0.11978828     1.51500
Co482      Co  0.56116968  0.27916750  0.12084047     1.51700
Co483      Co  0.48565912  0.31799356  0.13042613     1.51600
Co484      Co  0.51400696  0.19029999  0.13730782     1.51500
O485        O  0.50062073  0.25056849  0.11248683    -1.41500
C486        C  0.45972827  0.13027835  0.17375749     1.10100
C487        C  0.58553722  0.34967425  0.16373218     1.10200
C488        C  0.43332023  0.29417529  0.19157655     1.10100
C489        C  0.55153040  0.23291529  0.20750355     1.10100
O490        O  0.19944931  0.17233370  0.41249017    -0.79500
O491        O  0.31745702  0.17941186  0.57792886    -0.79500
O492        O  0.18097548  0.17400088  0.53837760    -0.79600
O493        O  0.30460751  0.19565473  0.46646864    -0.79500
O494        O  0.24710153  0.19693275  0.52880670    -0.79600
O495        O  0.28782287  0.16381071  0.40576178    -0.79500
O496        O  0.36188675  0.16202613  0.52386404    -0.79500
O497        O  0.15160407  0.14611723  0.45809226    -0.79600
C498        C  0.16032983  0.17171635  0.42559617     1.10200
C499        C  0.35644013  0.17941468  0.56290637     1.10000
C500        C  0.20859660  0.20512195  0.53908465     1.10200
C501        C  0.29226207  0.19874263  0.42793514     1.10100
O502        O  0.28673405  0.06985676  0.40384199    -0.79500
O503        O  0.22586161  0.12982920  0.60592068    -0.79600
O504        O  0.18934426  0.05678086  0.48040998    -0.79500
O505        O  0.31825315  0.07393597  0.49926653    -0.79500
O506        O  0.31020039  0.09531401  0.56687907    -0.79600
O507        O  0.19469979  0.07755544  0.41244509    -0.79500
O508        O  0.34507741  0.10770235  0.41833166    -0.79500
O509        O  0.19370926  0.08060276  0.56663150    -0.79600
Co510      Co  0.24294641  0.12082533  0.41615676     1.51500
Co511      Co  0.26719743  0.14181375  0.55285459     1.51700
Co512      Co  0.18583781  0.11519474  0.50854431     1.51600
Co513      Co  0.31727236  0.13338408  0.47790464     1.51500
O514        O  0.25106378  0.12351376  0.48753841    -1.41500
C515        C  0.32705578  0.07647115  0.39543318     1.10100
C516        C  0.20003185  0.09708452  0.60501853     1.10200
C517        C  0.17693545  0.05412103  0.44159698     1.10100
C518        C  0.33054292  0.07325769  0.53785662     1.10100
C519        C  0.75708321  0.76719171  0.27581665     0.02900
C520        C  0.76256117  0.73025547  0.24754532     0.02900
C521        C  0.72775428  0.70215458  0.24274930     0.02900
C522        C  0.71093220  0.69086408  0.28476893     0.02900
C523        C  0.69892741  0.72883750  0.30971481     0.02900
C524        C  0.73506171  0.75785537  0.31546868     0.02900
O525        O  0.58058818  0.55556414  0.31624113    -0.79500
O526        O  0.59248151  0.42795139  0.18966438    -0.79500
O527        O  0.61185996  0.57987642  0.21429493    -0.79600
O528        O  0.60016746  0.40567209  0.28735598    -0.79500
O529        O  0.58022299  0.51760828  0.19775811    -0.79600
O530        O  0.56522394  0.46525821  0.30666769    -0.79500
O531        O  0.64166507  0.38566497  0.21532016    -0.79500
O532        O  0.63384762  0.59963951  0.30205109    -0.79600
C533        C  0.59595975  0.59513428  0.31818456     1.10200
C534        C  0.60781634  0.38899275  0.19109625     1.10000
C535        C  0.58575039  0.55790126  0.19123588     1.10200
C536        C  0.56581489  0.42419576  0.29942964     1.10100
O537        O  0.65108342  0.44237564  0.35204468    -0.79500
O538        O  0.67013947  0.53560212  0.16409395    -0.79600
O539        O  0.70632318  0.53250884  0.28296622    -0.79500
O540        O  0.71042144  0.45251315  0.24628201    -0.79500
O541        O  0.68678182  0.44709117  0.17900776    -0.79600
O542        O  0.66857734  0.53163363  0.34402091    -0.79500
O543        O  0.68269496  0.39103390  0.30968657    -0.79500
O544        O  0.69752514  0.58164331  0.21062453    -0.79600
Co545      Co  0.61680225  0.49761944  0.32316820     1.51500
Co546      Co  0.63183802  0.48255001  0.18778997     1.51700
Co547      Co  0.65572053  0.55512732  0.25492837     1.51600
Co548      Co  0.65565576  0.43118069  0.26814058     1.51500
O549        O  0.63451491  0.49145345  0.25527105    -1.41500
C550        C  0.67541483  0.40679120  0.34846627     1.10100
C551        C  0.69277631  0.57019414  0.17063560     1.10200
C552        C  0.70423057  0.53854030  0.32391146     1.10100
C553        C  0.71717407  0.44245722  0.20653455     1.10100
C554        C  0.78767613  0.24542024  0.27486926     0.02900
C555        C  0.76737173  0.21710287  0.24427000     0.02900
C556        C  0.73136320  0.23323589  0.22321610     0.02900
C557        C  0.70483547  0.26100669  0.24880176     0.02900
C558        C  0.72682623  0.29371659  0.27257949     0.02900
C559        C  0.75941394  0.27431510  0.29861284     0.02900
C560        C  0.76957636  0.73131493  0.75087412     0.02900
C561        C  0.78682875  0.71961357  0.70975748     0.02900
C562        C  0.80737887  0.75542429  0.68922265     0.02900
C563        C  0.77705743  0.79012298  0.68345501     0.02900
C564        C  0.76026333  0.80597805  0.72495614     0.02900
C565        C  0.74890016  0.77227449  0.75485578     0.02900
O566        O  0.15146167  0.95911620  0.84681343    -0.79500
O567        O  0.15837795  0.03861124  0.64468968    -0.79500
O568        O  0.19671175  0.96521969  0.75204560    -0.79600
O569        O  0.19697783  0.04792932  0.76127831    -0.79500
O570        O  0.18360744  0.97219484  0.68135479    -0.79600
O571        O  0.17258060  0.05024115  0.82959134    -0.79500
O572        O  0.17567936  0.09791149  0.68534416    -0.79500
O573        O  0.16341484  0.90053962  0.80529004    -0.79600
C574        C  0.16662621  0.91882720  0.84308376     1.10200
C575        C  0.17744984  0.07707088  0.64754153     1.10000
C576        C  0.20959220  0.96441144  0.71234433     1.10200
C577        C  0.20258299  0.05692047  0.80133141     1.10100
O578        O  0.08066061  0.07292680  0.82172076    -0.79500
O579        O  0.09313122  0.93920618  0.67201330    -0.79600
O580        O  0.08021928  0.92744351  0.78063350    -0.79500
O581        O  0.09010735  0.08854503  0.70991861    -0.79500
O582        O  0.07847107  0.03291305  0.66497667    -0.79600
O583        O  0.06297874  0.98540228  0.82154895    -0.79500
O584        O  0.12538546  0.11432408  0.78421077    -0.79500
O585        O  0.13168893  0.90054993  0.71687791    -0.79600
Co586      Co  0.11740720  0.01635312  0.82379232     1.51500
Co587      Co  0.12440135  0.99650743  0.68882029     1.51700
Co588      Co  0.13902132  0.94721009  0.76795906     1.51600
Co589      Co  0.14344978  0.06598506  0.73520221     1.51500
O590        O  0.11782542  0.00851342  0.75468949    -1.41500
C591        C  0.09303781  0.11185319  0.81214493     1.10100
C592        C  0.10361459  0.90104335  0.68614292     1.10200
C593        C  0.05257366  0.95051678  0.80088273     1.10100
C594        C  0.07078247  0.07202371  0.67786538     1.10100
O595        O  0.78382656  0.38240543  0.61453308    -0.79500
O596        O  0.74090738  0.38163376  0.38425705    -0.79500
O597        O  0.84069976  0.42000382  0.47833807    -0.79600
O598        O  0.69928667  0.42288394  0.50077803    -0.79500
O599        O  0.77814926  0.43554770  0.44689594    -0.79600
O600        O  0.71886440  0.42026009  0.56941828    -0.79500
O601        O  0.68273411  0.37953478  0.42742209    -0.79500
O602        O  0.83402082  0.41311638  0.57242512    -0.79600
C603        C  0.81628955  0.40940231  0.61126718     1.10200
C604        C  0.70030899  0.38768024  0.38859369     1.10000
C605        C  0.81451600  0.44699130  0.46067410     1.10200
C606        C  0.70160904  0.44060360  0.53832549     1.10100
O607        O  0.69255052  0.33832875  0.60188935    -0.79500
O608        O  0.82798080  0.35929581  0.41166017    -0.79600
O609        O  0.83556888  0.31806800  0.55761851    -0.79500
O610        O  0.70788709  0.29702171  0.48009193    -0.79500
O611        O  0.76220562  0.30857420  0.43555164    -0.79600
O612        O  0.76652679  0.29958094  0.56113422    -0.79500
O613        O  0.65838695  0.34380355  0.53849071    -0.79500
O614        O  0.85245363  0.32423839  0.46831129    -0.79600
Co615      Co  0.74239707  0.35938435  0.56425572     1.51500
Co616      Co  0.76789719  0.37237093  0.44179398     1.51700
Co617      Co  0.83657125  0.36893143  0.51810880     1.51600
Co618      Co  0.70726392  0.36087364  0.49096319     1.51500
O619        O  0.77284755  0.36851692  0.50717236    -1.41500
C620        C  0.65736158  0.33340631  0.58027664     1.10100
C621        C  0.85474627  0.33101264  0.42679195     1.10200
C622        C  0.80576181  0.29167188  0.56891923     1.10100
C623        C  0.73562370  0.28248766  0.45313852     1.10100
C624        C  0.94459288  0.47162580  0.52848614     0.02900
C625        C  0.95247667  0.49754761  0.56687117     0.02900
C626        C  0.97970770  0.53388705  0.55721287     0.02900
C627        C  0.01895134  0.51826490  0.54084911     0.02900
C628        C  0.01658593  0.48842297  0.50561203     0.02900
C629        C  0.98270425  0.45750107  0.50585386     0.02900
O630        O  0.83576427  0.64405347  0.09461086    -0.79500
O631        O  0.67653818  0.65498949  0.91504663    -0.79500
O632        O  0.82080028  0.67840021  0.94455328    -0.79600
O633        O  0.70368014  0.70292461  0.05037805    -0.79500
O634        O  0.75207908  0.69382532  0.94652874    -0.79600
O635        O  0.74679135  0.68753541  0.10256361    -0.79500
O636        O  0.66550401  0.68140293  0.98165216    -0.79500
O637        O  0.84381177  0.68164561  0.03530037    -0.79600
C638        C  0.85681586  0.67319499  0.07423662     1.10200
C639        C  0.65386638  0.67927477  0.94077590     1.10000
C640        C  0.78829411  0.69646848  0.92794371     1.10200
C641        C  0.71679116  0.71053297  0.08755790     1.10100
O642        O  0.75137510  0.60763718  0.13164284    -0.79500
O643        O  0.76728921  0.60569361  0.90343062    -0.79600
O644        O  0.83058504  0.58225411  0.03288224    -0.79500
O645        O  0.67829493  0.58298486  0.01593491    -0.79500
O646        O  0.69508464  0.57825447  0.94947886    -0.79600
O647        O  0.76758709  0.57124905  0.06366663    -0.79500
O648        O  0.69086904  0.60902298  0.09675315    -0.79500
O649        O  0.82102220  0.58441729  0.94359461    -0.79600
Co650      Co  0.77453084  0.63388672  0.07656973     1.51500
Co651      Co  0.72590951  0.63542162  0.95093227     1.51700
Co652      Co  0.82308438  0.63249202  0.99140163     1.51600
Co653      Co  0.69230936  0.64262879  0.03392800     1.51500
O654        O  0.75701072  0.63241549  0.01048387    -1.41500
C655        C  0.71232428  0.59717121  0.13129508     1.10100
C656        C  0.80366182  0.58547229  0.90615162     1.10200
C657        C  0.80076271  0.55594807  0.04547491     1.10100
C658        C  0.66553888  0.57834773  0.97788813     1.10100
C659        C  0.53625122  0.55444173  0.02301985     0.02900
C660        C  0.51099967  0.57871247  0.99355475     0.02900
C661        C  0.47333541  0.55850875  0.97738535     0.02900
C662        C  0.47161147  0.51263703  0.97727903     0.02900
C663        C  0.49410062  0.49153024  0.00927071     0.02900
C664        C  0.53162791  0.50859000  0.02406811     0.02900
O665        O  0.86021375  0.15709564  0.98327187    -0.79500
O666        O  0.66757996  0.18690790  0.04005141    -0.79500
O667        O  0.77112337  0.18755365  0.95784404    -0.79600
O668        O  0.75390525  0.16400121  0.09501345    -0.79500
O669        O  0.70143175  0.20085146  0.95195988    -0.79600
O670        O  0.78821082  0.19279911  0.03660284    -0.79500
O671        O  0.66592166  0.13736016  0.09181860    -0.79500
O672        O  0.83280846  0.13756495  0.91862563    -0.79600
C673        C  0.86425385  0.15629879  0.93995552     1.10200
C674        C  0.64917955  0.17192297  0.07539646     1.10000
C675        C  0.74051970  0.21314046  0.94917347     1.10200
C676        C  0.76535488  0.19717674  0.07116805     1.10100
O677        O  0.82981119  0.11750056  0.07971354    -0.79500
O678        O  0.67753066  0.10705730  0.93067732    -0.79600
O679        O  0.78130455  0.05964613  0.94959047    -0.79500
O680        O  0.69072512  0.05046085  0.06634079    -0.79500
O681        O  0.69629102  0.09818537  0.01822444    -0.79600
O682        O  0.82177495  0.07200630  0.00495906    -0.79500
O683        O  0.77971424  0.06811303  0.08976699    -0.79500
O684        O  0.73991460  0.11674108  0.89806159    -0.79600
Co685      Co  0.80447852  0.13383385  0.01705216     1.51500
Co686      Co  0.68241203  0.14801310  0.98506444     1.51700
Co687      Co  0.77677776  0.12377488  0.95466030     1.51600
Co688      Co  0.72542938  0.10568832  0.08024965     1.51500
O689        O  0.73838690  0.11895952  0.01114436    -1.41500
C690        C  0.81640653  0.08314223  0.10130755     1.10100
C691        C  0.70111802  0.10224770  0.89622533     1.10200
C692        C  0.80508618  0.04492530  0.97851495     1.10100
C693        C  0.67352776  0.06808117  0.03376283     1.10100
O694        O  0.38200836  0.58631282  0.65574244    -0.79500
O695        O  0.35589842  0.42231017  0.82630194    -0.79500
O696        O  0.32121024  0.44758559  0.68536521    -0.79600
O697        O  0.31985689  0.55510008  0.77453326    -0.79500
O698        O  0.31619651  0.46505777  0.75567205    -0.79600
O699        O  0.36523720  0.60413090  0.75075149    -0.79500
O700        O  0.33990025  0.48994698  0.84948262    -0.79500
O701        O  0.33063464  0.53725024  0.66179825    -0.79600
C702        C  0.34562826  0.57131757  0.64188115     1.10200
C703        C  0.33953758  0.44740332  0.85723123     1.10000
C704        C  0.30154494  0.44555273  0.72215677     1.10200
C705        C  0.32789221  0.58900648  0.75157290     1.10100
O706        O  0.44791208  0.58959941  0.77525577    -0.79500
O707        O  0.38718762  0.39991427  0.73264477    -0.79600
O708        O  0.41710554  0.52235649  0.68325539    -0.79500
O709        O  0.42665586  0.50673677  0.82787076    -0.79500
O710        O  0.43545010  0.44716520  0.78756690    -0.79600
O711        O  0.46932754  0.56248930  0.68502295    -0.79500
O712        O  0.39494652  0.58873461  0.82463085    -0.79500
O713        O  0.41288800  0.43597928  0.67696820    -0.79600
Co714      Co  0.41448678  0.57979216  0.71867473     1.51500
Co715      Co  0.37663496  0.45687964  0.77214583     1.51700
Co716      Co  0.37061150  0.48615065  0.67689974     1.51600
Co717      Co  0.37249351  0.52892966  0.80061960     1.51500
O718        O  0.39216689  0.51154766  0.73596772    -1.41500
C719        C  0.42981865  0.60681448  0.80993911     1.10100
C720        C  0.40947548  0.39992678  0.69645430     1.10200
C721        C  0.45161149  0.53148291  0.66551959     1.10100
C722        C  0.44700046  0.47115619  0.81868235     1.10100
O723        O  0.80535933  0.92692909  0.43192348    -0.79500
O724        O  0.68768005  0.92596452  0.57039753    -0.79500
O725        O  0.70221072  0.90777486  0.41674441    -0.79600
O726        O  0.79030890  0.91327614  0.58463807    -0.79500
O727        O  0.69069862  0.94166753  0.48008268    -0.79600
O728        O  0.80987993  0.94504037  0.52230083    -0.79500
O729        O  0.71360780  0.87593772  0.61309395    -0.79500
O730        O  0.78363379  0.87330530  0.39031856    -0.79600
C731        C  0.80279715  0.91037008  0.39281537     1.10200
C732        C  0.69062687  0.91072396  0.60963580     1.10000
C733        C  0.68647475  0.93997383  0.43898635     1.10200
C734        C  0.80808331  0.94478409  0.56387776     1.10100
O735        O  0.85146457  0.85651888  0.53972515    -0.79500
O736        O  0.64754757  0.85196084  0.46232789    -0.79600
O737        O  0.76235019  0.80393259  0.45970519    -0.79500
O738        O  0.73531011  0.80574517  0.53993978    -0.79500
O739        O  0.67077199  0.83248368  0.54765948    -0.79600
O740        O  0.82655760  0.83277934  0.45446930    -0.79500
O741        O  0.81027630  0.82332831  0.58807617    -0.79500
O742        O  0.69070860  0.81777684  0.41586929    -0.79600
Co743      Co  0.81602675  0.88975456  0.48858230     1.51500
Co744      Co  0.68170374  0.88772876  0.51336999     1.51700
Co745      Co  0.73872039  0.85777106  0.43812375     1.51600
Co746      Co  0.75921473  0.85911296  0.56501102     1.51500
O747        O  0.74911871  0.87765857  0.50172218    -1.41500
C748        C  0.84842015  0.83006016  0.57350779     1.10100
C749        C  0.65215806  0.82406324  0.42942083     1.10200
C750        C  0.80187234  0.79918070  0.45245554     1.10100
C751        C  0.69657846  0.80011518  0.55048584     1.10100
O752        O  0.07813069  0.59363813  0.22641892    -0.79500
O753        O  0.09151000  0.39331122  0.27426616    -0.79500
O754        O  0.07103406  0.50774398  0.18333182    -0.79600
O755        O  0.09365686  0.52292315  0.31311967    -0.79500
O756        O  0.04950263  0.45603642  0.22768362    -0.79600
O757        O  0.05921289  0.58101233  0.31615285    -0.79500
O758        O  0.08420888  0.43099510  0.33550575    -0.79500
O759        O  0.12507287  0.57677150  0.17578123    -0.79600
C760        C  0.09394423  0.60242756  0.18868000     1.10200
C761        C  0.08074698  0.39362103  0.31485124     1.10000
C762        C  0.04087738  0.48583907  0.20113285     1.10200
C763        C  0.06718664  0.54540717  0.33452463     1.10100
O764        O  0.14820450  0.58643715  0.33852016    -0.79500
O765        O  0.13455946  0.42587827  0.17278804    -0.79600
O766        O  0.19026486  0.51853359  0.21795719    -0.79500
O767        O  0.17432853  0.43228856  0.32311838    -0.79500
O768        O  0.17030235  0.44403070  0.25276387    -0.79600
O769        O  0.17217724  0.58372010  0.24762169    -0.79500
O770        O  0.18171042  0.52332373  0.34365693    -0.79500
O771        O  0.15437100  0.48858627  0.14293653    -0.79600
Co772      Co  0.11446583  0.58060677  0.27955317     1.51500
Co773      Co  0.11035759  0.44658853  0.23710231     1.51700
Co774      Co  0.13181407  0.51148613  0.20129701     1.51600
Co775      Co  0.13281629  0.47914177  0.32897362     1.51500
O776        O  0.11515621  0.50960261  0.26742302    -1.41500
C777        C  0.17519970  0.56262069  0.35897394     1.10100
C778        C  0.15529853  0.44618129  0.14112265     1.10200
C779        C  0.20037224  0.55477207  0.23483965     1.10100
C780        C  0.18082179  0.41982879  0.28387065     1.10100
C781        C  0.52791354  0.42255463  0.49347319     0.02900
C782        C  0.49272205  0.44997853  0.50347458     0.02900
C783        C  0.48194917  0.48249984  0.47225559     0.02900
C784        C  0.51762971  0.50126374  0.44998224     0.02900
C785        C  0.54856063  0.46879966  0.43673639     0.02900
C786        C  0.56260799  0.44370006  0.47271847     0.02900
C787        C  0.95980881  0.49146885  0.97252503     0.02900
C788        C  0.99553323  0.46777320  0.98950353     0.02900
C789        C  0.02028474  0.49043969  0.02182504     0.02900
C790        C  0.99777129  0.52031102  0.04965032     0.02900
C791        C  0.96384304  0.54301380  0.03087887     0.02900
C792        C  0.93781334  0.51604822  0.00503631     0.02900
C793        C  0.98607475  0.45778559  0.15711245     0.24200
C794        C  0.99744780  0.49187049  0.18565157    -0.23900
C795        C  0.98801950  0.53509873  0.17304622     0.19100
C796        C  0.98786910  0.54451690  0.12821007     0.24200
C797        C  0.99262005  0.50998060  0.09703915    -0.23800
C798        C  0.98742320  0.46614793  0.11219180     0.19100
F799        F  0.98264611  0.43153617  0.08461377    -0.13800
F800        F  0.98534615  0.41534436  0.17120468    -0.16200
F801        F  0.98430481  0.58686412  0.11547876    -0.16200
F802        F  0.98921290  0.56867190  0.20302064    -0.13800
C803        C  0.50620509  0.51834627  0.60703014     0.24200
C804        C  0.46595461  0.50986183  0.62548642    -0.23900
C805        C  0.43824264  0.48007280  0.60443201     0.19100
C806        C  0.45454078  0.45127675  0.57351009     0.24200
C807        C  0.49016379  0.46453795  0.54944610    -0.23800
C808        C  0.51687706  0.49833956  0.56708128     0.19100
F809        F  0.55121435  0.51490252  0.54537586    -0.13800
F810        F  0.53262747  0.54943491  0.62449295    -0.16200
F811        F  0.43395952  0.41267554  0.56543305    -0.16200
F812        F  0.39507498  0.48088565  0.61052511    -0.13800
C813        C  0.50952102  0.47566317  0.86480376     0.24200
C814        C  0.47347415  0.45193483  0.85210078    -0.23900
C815        C  0.44745371  0.43363240  0.88540309     0.19100
C816        C  0.44275181  0.45758694  0.92454138     0.24200
C817        C  0.47412322  0.48874287  0.93522416    -0.23800
C818        C  0.51128934  0.49092702  0.90810991     0.19100
F819        F  0.54878395  0.50603490  0.92372237    -0.13800
F820        F  0.54030855  0.48706518  0.83480810    -0.16200
F821        F  0.40745971  0.45169702  0.95051266    -0.16200
F822        F  0.41948766  0.40068483  0.87608926    -0.13800
C823        C  0.83790835  0.49838051  0.07669199     0.24200
C824        C  0.80876563  0.50857523  0.04423859    -0.23900
C825        C  0.81891467  0.49357301  0.00154455     0.19100
C826        C  0.86213301  0.49368139  0.98825575     0.24200
C827        C  0.89389716  0.50289219  0.01980650    -0.23800
C828        C  0.88124950  0.50136504  0.06499107     0.19100
F829        F  0.90867713  0.50793421  0.09800498    -0.13800
F830        F  0.82605550  0.50311416  0.11982176    -0.16200
F831        F  0.87222964  0.48861185  0.94482448    -0.16200
F832        F  0.78798201  0.49198386  0.97066001    -0.13800
C833        C  0.55517547  0.59386644  0.92829413     0.24200
C834        C  0.53439320  0.61156469  0.96617818    -0.23900
C835        C  0.55950531  0.64033126  0.99046478     0.19100
C836        C  0.60138602  0.62643862  0.99763065     0.24200
C837        C  0.62153296  0.59487963  0.96858751    -0.23800
C838        C  0.59921488  0.58318736  0.93030588     0.19100
F839        F  0.61875214  0.56023317  0.89689457    -0.13800
F840        F  0.53210004  0.58301895  0.89224478    -0.16200
F841        F  0.62012360  0.64138578  0.03491831    -0.16200
F842        F  0.54087836  0.67048870  0.01812376    -0.13800
C843        C  0.08364643  0.51527227  0.40795394     0.24200
C844        C  0.05406129  0.53418959  0.37908371    -0.23900
C845        C  0.01237548  0.54270908  0.39391122     0.19100
C846        C  0.99980811  0.52892538  0.43561110     0.24200
C847        C  0.02919298  0.50699389  0.46300139    -0.23800
C848        C  0.07214170  0.50580154  0.45053134     0.19100
F849        F  0.10327101  0.49431356  0.47897058    -0.13800
F850        F  0.12367893  0.50397895  0.39593465    -0.16200
F851        F  0.96050129  0.54134418  0.45019616    -0.16200
F852        F  0.98356398  0.56288722  0.36772479    -0.13800
C853        C  0.63762642  0.46337468  0.56988235     0.24200
C854        C  0.67373432  0.47874361  0.54672700    -0.23900
C855        C  0.66580075  0.50163783  0.50782299     0.19100
C856        C  0.63253169  0.48555856  0.48148389     0.24200
C857        C  0.60015403  0.45813112  0.49977713    -0.23800
C858        C  0.60353341  0.44691182  0.54514965     0.19100
F859        F  0.57472515  0.42014499  0.56577931    -0.13800
F860        F  0.64143158  0.45032349  0.61234339    -0.16200
F861        F  0.63696328  0.48958598  0.43728859    -0.16200
F862        F  0.69875525  0.52371936  0.48810671    -0.13800
C863        C  0.83233456  0.51058254  0.49878936     0.24200
C864        C  0.83015506  0.49211280  0.45645773    -0.23900
C865        C  0.86867178  0.49072288  0.43222103     0.19100
C866        C  0.90543274  0.47861160  0.45513528     0.24200
C867        C  0.90609021  0.48331072  0.50200951    -0.23800
C868        C  0.86860681  0.50040844  0.52338761     0.19100
F869        F  0.86431263  0.50038286  0.56791981    -0.13800
F870        F  0.79540467  0.52213817  0.52048034    -0.16200
F871        F  0.93809141  0.45950413  0.43158292    -0.16200
F872        F  0.86752869  0.48304496  0.38808936    -0.13800
C873        C  0.70153096  0.79642281  0.65044610     0.24200
C874        C  0.74450444  0.78034640  0.64803155    -0.23900
C875        C  0.75433260  0.74949513  0.61343867     0.19100
C876        C  0.72248831  0.73517566  0.58461900     0.24200
C877        C  0.68719491  0.76333320  0.58048810    -0.23800
C878        C  0.67138941  0.78103075  0.61996456     0.19100
F879        F  0.63025185  0.79522756  0.62211297    -0.13800
F880        F  0.68790423  0.82501044  0.68255634    -0.16200
F881        F  0.73402030  0.70830483  0.55029435    -0.16200
F882        F  0.79541682  0.73864592  0.60295600    -0.13800
C883        C  0.76696500  0.67922671  0.85212691     0.24200
C884        C  0.79006455  0.70638156  0.88105265    -0.23900
C885        C  0.81792079  0.73765388  0.86296591     0.19100
C886        C  0.81585597  0.74528004  0.81766381     0.24200
C887        C  0.79156172  0.71637741  0.79030306    -0.23800
C888        C  0.77565354  0.67835415  0.80829761     0.19100
F889        F  0.75809208  0.64568638  0.78407161    -0.13800
F890        F  0.73100713  0.65828091  0.86330545    -0.16200
F891        F  0.83494201  0.78194375  0.80183585    -0.16200
F892        F  0.84208590  0.76409663  0.88909321    -0.13800
C893        C  0.71240318  0.24662596  0.10206056     0.24200
C894        C  0.75473937  0.24177898  0.08678415    -0.23900
C895        C  0.78583136  0.25921031  0.11404419     0.19100
C896        C  0.77703040  0.26092952  0.15910066     0.24200
C897        C  0.73771379  0.24339530  0.17596650    -0.23800
C898        C  0.70364586  0.23969735  0.14666764     0.19100
F899        F  0.66271623  0.23464593  0.16160619    -0.13800
F900        F  0.68192792  0.26211370  0.07502424    -0.16200
F901        F  0.80457408  0.28323360  0.18466543    -0.16200
F902        F  0.82603774  0.26755503  0.09821986    -0.13800
C903        C  0.70628457  0.26054009  0.36253601     0.24200
C904        C  0.74878259  0.25895314  0.34458273    -0.23900
C905        C  0.78010321  0.23653643  0.36992528     0.19100
C906        C  0.77024660  0.22391923  0.41329921     0.24200
C907        C  0.73152935  0.23899392  0.43242501    -0.23800
C908        C  0.69718428  0.24244039  0.40390962     0.19100
F909        F  0.65671176  0.24634050  0.42102285    -0.13800
F910        F  0.67442792  0.28288486  0.34328963    -0.16200
F911        F  0.80222721  0.20962620  0.43942391    -0.16200
F912        F  0.81978963  0.22694282  0.35341617    -0.13800
C913        C  0.53703582  0.60320606  0.09097980     0.24200
C914        C  0.55858634  0.57560253  0.05979367    -0.23900
C915        C  0.59751831  0.55714159  0.07073210     0.19100
C916        C  0.60196983  0.54697440  0.11355821     0.24200
C917        C  0.57987532  0.57135424  0.14658186    -0.23800
C918        C  0.54956461  0.60271305  0.13487187     0.19100
F919        F  0.52752813  0.62643396  0.16606374    -0.13800
F920        F  0.50253749  0.62734055  0.08034449    -0.16200
F921        F  0.61773651  0.50583884  0.12023313    -0.16200
F922        F  0.62078754  0.53309481  0.04092646    -0.13800
C923        C  0.54907372  0.37339021  0.35295245     0.24200
C924        C  0.53089351  0.39693002  0.31857162    -0.23900
C925        C  0.49564737  0.42254893  0.33206684     0.19100
C926        C  0.50120695  0.44841981  0.37018866     0.24200
C927        C  0.53628407  0.43920633  0.39850999    -0.23800
C928        C  0.55857621  0.39855701  0.39037143     0.19100
F929        F  0.59242722  0.38574217  0.41464254    -0.13800
F930        F  0.57284276  0.33669876  0.34420990    -0.16200
F931        F  0.47681762  0.48497602  0.37442483    -0.16200
F932        F  0.46623776  0.43481870  0.30211777    -0.13800
C933        C  0.72347607  0.33981832  0.20179443     0.24200
C934        C  0.73898440  0.33388600  0.24527773    -0.23900
C935        C  0.76659181  0.36718261  0.26140120     0.19100
C936        C  0.77809038  0.40330511  0.23494226     0.24200
C937        C  0.75311277  0.41147611  0.19764776    -0.23800
C938        C  0.73822558  0.37428830  0.17552061     0.19100
F939        F  0.72158675  0.37867107  0.13471971    -0.13800
F940        F  0.68886377  0.31768414  0.18692749    -0.16200
F941        F  0.80010184  0.43724191  0.25358524    -0.16200
F942        F  0.77511733  0.36993810  0.30477465    -0.13800
C943        C  0.75239817  0.73152677  0.39279669     0.24200
C944        C  0.76522308  0.75334974  0.35382529    -0.23900
C945        C  0.80862301  0.76986145  0.35213563     0.19100
C946        C  0.83454115  0.76786933  0.38908579     0.24200
C947        C  0.81476395  0.75815010  0.42921056    -0.23800
C948        C  0.78125166  0.72712744  0.42742042     0.19100
F949        F  0.76689080  0.70863906  0.46544960    -0.13800
F950        F  0.71069537  0.72200486  0.40108317    -0.16200
F951        F  0.87318483  0.78872203  0.38828327    -0.16200
F952        F  0.82611853  0.79018267  0.31645015    -0.13800
C953        C  0.70104214  0.76602293  0.14367212     0.24200
C954        C  0.68684442  0.73096540  0.11826022    -0.23900
C955        C  0.66166708  0.69898486  0.13948826     0.19100
C956        C  0.67278001  0.68812034  0.18231700     0.24200
C957        C  0.69868202  0.71729168  0.20620767    -0.23800
C958        C  0.70069757  0.76065986  0.18897225     0.19100
F959        F  0.69156797  0.79631201  0.21437314    -0.13800
F960        F  0.71561645  0.80384349  0.12498555    -0.16200
F961        F  0.65720476  0.65098357  0.20000306    -0.16200
F962        F  0.63624320  0.67161302  0.11590267    -0.13800
C963        C  0.70755145  0.63979436  0.34996539     0.24200
C964        C  0.72649440  0.65099299  0.30871910    -0.23900
C965        C  0.75811963  0.62175305  0.29071870     0.19100
C966        C  0.76761565  0.58243697  0.31246605     0.24200
C967        C  0.73722661  0.56748692  0.34363231    -0.23800
C968        C  0.71842629  0.60023149  0.37037881     0.19100
F969        F  0.69704855  0.58847495  0.40783535    -0.13800
F970        F  0.67303703  0.66219651  0.36633330    -0.16200
F971        F  0.79416295  0.55272227  0.29199236    -0.16200
F972        F  0.77576818  0.62742129  0.25002335    -0.13800
C973        C  0.54726276  0.46235629  0.08671322     0.24200
C974        C  0.55998130  0.47630516  0.04492781    -0.23900
C975        C  0.58271197  0.44695246  0.01662807     0.19100
C976        C  0.58145739  0.40170507  0.02500426     0.24200
C977        C  0.55585981  0.38712943  0.06026366    -0.23800
C978        C  0.54066447  0.41792516  0.09239032     0.19100
F979        F  0.51086154  0.40708364  0.12357743    -0.13800
F980        F  0.52734802  0.49082958  0.11534234    -0.16200
F981        F  0.59800932  0.37260800  0.99483840    -0.16200
F982        F  0.59900216  0.46111913  0.97749200    -0.13800
C983        C  0.60039893  0.19618165  0.25346422     0.24200
C984        C  0.57171757  0.23149625  0.25015712    -0.23900
C985        C  0.58476797  0.27320977  0.26512235     0.19100
C986        C  0.62856215  0.28241246  0.26742633     0.24200
C987        C  0.65909866  0.24915588  0.25827841    -0.23800
C988        C  0.64435615  0.20503400  0.25497705     0.19100
F989        F  0.67179764  0.17080432  0.24850338    -0.13800
F990        F  0.58741808  0.15464046  0.24273546    -0.16200
F991        F  0.64095632  0.32453748  0.27451301    -0.16200
F992        F  0.55669540  0.30750514  0.26394746    -0.13800
C993        C  0.61158682  0.01930565  0.02180736     0.24200
C994        C  0.62879589  0.06140840  0.02059054    -0.23900
C995        C  0.60191198  0.09685897  0.00820937     0.19100
C996        C  0.55838276  0.09052317  0.00204466     0.24200
C997        C  0.54174915  0.04816361  0.99967387    -0.23800
C998        C  0.56938855  0.01281840  0.00973128     0.19100
F999        F  0.55625210  0.97129766  0.00616396    -0.13800
F1000       F  0.63628468  0.98394943  0.03188227    -0.16200
F1001       F  0.53230177  0.12608428  0.00169197    -0.16200
F1002       F  0.61622251  0.13798927  0.00138218    -0.13800
C1003       C  0.49576526  0.02953321  0.08466213     0.24200
C1004       C  0.46308488  0.01283625  0.05866574    -0.23900
C1005       C  0.42426128  0.03627714  0.06187052     0.19100
C1006       C  0.42631615  0.08256731  0.06401487     0.24200
C1007       C  0.46641005  0.10277312  0.07158761    -0.23800
C1008       C  0.50022671  0.07533388  0.08655106     0.19100
F1009       F  0.53878299  0.09184715  0.09889377    -0.13800
F1010       F  0.52913946  0.00332932  0.09564732    -0.16200
F1011       F  0.39045469  0.10680750  0.05693568    -0.16200
F1012       F  0.38653555  0.01566876  0.05337774    -0.13800
C1013       C  0.77674353  0.93195351  0.73179034     0.24200
C1014       C  0.76322083  0.93920859  0.77598046    -0.23900
C1015       C  0.77183343  0.90529492  0.80481091     0.19100
C1016       C  0.77197385  0.86192125  0.78855251     0.24200
C1017       C  0.76812218  0.85247423  0.74259820    -0.23800
C1018       C  0.77382284  0.88879531  0.71425615     0.19100
F1019       F  0.77530176  0.88301791  0.67001113    -0.13800
F1020       F  0.77762361  0.96647252  0.70359877    -0.16200
F1021       F  0.77500265  0.83030494  0.81875336    -0.16200
F1022       F  0.76879387  0.91265510  0.84900561    -0.13800
C1023       C  0.54969876  0.10521722  0.88114744     0.24200
C1024       C  0.53920057  0.07829528  0.84512168    -0.23900
C1025       C  0.49573359  0.06957438  0.83722126     0.19100
C1026       C  0.46606837  0.07637021  0.87220116     0.24200
C1027       C  0.48331767  0.08385421  0.91464371    -0.23800
C1028       C  0.51860170  0.11237694  0.91384582     0.19100
F1029       F  0.51461994  0.15385048  0.93076869    -0.13800
F1030       F  0.58857404  0.12531040  0.88354702    -0.16200
F1031       F  0.42555137  0.06041696  0.86823163    -0.16200
F1032       F  0.48335145  0.05060782  0.79874202    -0.13800
C1033       C  0.50836576  0.57338493  0.49595797     0.24200
C1034       C  0.53189897  0.54703091  0.46427490    -0.23900
C1035       C  0.57053174  0.56499833  0.44731750     0.19100
C1036       C  0.58532856  0.60610385  0.46240330     0.24200
C1037       C  0.55544003  0.63493198  0.48245737    -0.23800
C1038       C  0.52211769  0.61599127  0.50703609     0.19100
F1039       F  0.49555410  0.64252493  0.53154382    -0.13800
F1040       F  0.47112422  0.55975544  0.51523258    -0.16200
F1041       F  0.62130291  0.62326010  0.44331297    -0.16200
F1042       F  0.59031543  0.54660749  0.41151478    -0.13800
C1043       C  0.59654241  0.73822548  0.24266198     0.24200
C1044       C  0.58102674  0.77844586  0.25846343    -0.23900
C1045       C  0.61223770  0.80945176  0.27019679     0.19100
C1046       C  0.64787692  0.79369376  0.29314638     0.24200
C1047       C  0.65772787  0.74792525  0.29203727    -0.23800
C1048       C  0.62949515  0.72017867  0.26734416     0.19100
F1049       F  0.62999485  0.67598059  0.27168318    -0.13800
F1050       F  0.56963325  0.71047400  0.22107607    -0.16200
F1051       F  0.66789934  0.82190928  0.32039459    -0.16200
F1052       F  0.60103788  0.85266028  0.27442318    -0.13800
C1053       C  0.59058351  0.92763010  0.45299727     0.24200
C1054       C  0.58663745  0.95947542  0.48701236    -0.23900
C1055       C  0.60845158  0.00020432  0.48039538     0.19100
C1056       C  0.63996439  0.00351445  0.44677885     0.24200
C1057       C  0.65052654  0.96553998  0.42175151    -0.23800
C1058       C  0.61673381  0.93583773  0.41590915     0.19100
F1059       F  0.61915130  0.90529930  0.38286655    -0.13800
F1060       F  0.57047495  0.88817251  0.45664120    -0.16200
F1061       F  0.66529104  0.03997111  0.44450386    -0.16200
F1062       F  0.59872266  0.03683777  0.50417669    -0.13800
C1063       C  0.43021107  0.01794503  0.57049529     0.24200
C1064       C  0.46289064  0.04674380  0.55387272    -0.23900
C1065       C  0.44978460  0.08431150  0.53165513     0.19100
C1066       C  0.40723370  0.08706379  0.52026670     0.24200
C1067       C  0.37546065  0.06390553  0.54450601    -0.23800
C1068       C  0.38760266  0.03082092  0.57245455     0.19100
F1069       F  0.35751580  0.00385714  0.59092481    -0.13800
F1070       F  0.43597313  0.97392047  0.57111714    -0.16200
F1071       F  0.39867891  0.10691705  0.48165696    -0.16200
F1072       F  0.47901616  0.11006185  0.51017850    -0.13800
C1073       C  0.50492680  0.94835513  0.62894092     0.24200
C1074       C  0.54068235  0.93995943  0.59924636    -0.23900
C1075       C  0.56610581  0.90278993  0.60814077     0.19100
C1076       C  0.56286720  0.88511395  0.65070568     0.24200
C1077       C  0.53899084  0.90930097  0.68243543    -0.23800
C1078       C  0.50077248  0.92518866  0.66779340     0.19100
F1079       F  0.47013396  0.93764665  0.69790401    -0.13800
F1080       F  0.48143418  0.98495055  0.62872277    -0.16200
F1081       F  0.59072743  0.85395152  0.66389010    -0.16200
F1082       F  0.59683951  0.88834230  0.57913771    -0.13800
C1083       C  0.48787230  0.91750676  0.44298524     0.24200
C1084       C  0.48561615  0.92636273  0.48751293    -0.23900
C1085       C  0.46681375  0.89583619  0.51716372     0.19100
C1086       C  0.45181479  0.85571296  0.50138432     0.24200
C1087       C  0.46149633  0.84452855  0.45795886    -0.23800
C1088       C  0.48226637  0.87520221  0.43011281     0.19100
F1089       F  0.51075485  0.86273220  0.39847332    -0.13800
F1090       F  0.50996275  0.94444974  0.41503840    -0.16200
F1091       F  0.43634589  0.82497976  0.52984374    -0.16200
F1092       F  0.46786729  0.90147404  0.56121768    -0.13800
C1093       C  0.49647405  0.90545907  0.08347072     0.24200
C1094       C  0.45599180  0.89907997  0.10259422    -0.23900
C1095       C  0.42246921  0.88918999  0.07359747     0.19100
C1096       C  0.42383940  0.90616422  0.03061107     0.24200
C1097       C  0.46256829  0.92310851  0.01401813    -0.23800
C1098       C  0.49959493  0.91109999  0.03771520     0.19100
F1099       F  0.53612674  0.89832676  0.01631244    -0.13800
F1100       F  0.53211404  0.90595117  0.10852013    -0.16200
F1101       F  0.38764359  0.90880675  0.00688962    -0.16200
F1102       F  0.38797307  0.86651788  0.08850190    -0.13800
C1103       C  0.43238395  0.99809089  0.40597666     0.24200
C1104       C  0.46120760  0.01319737  0.37252216    -0.23900
C1105       C  0.49633609  0.03928583  0.38443184     0.19100
C1106       C  0.50628860  0.04346056  0.42909776     0.24200
C1107       C  0.48014523  0.02281803  0.46121890    -0.23800
C1108       C  0.44040045  0.00586981  0.44976012     0.19100
F1109       F  0.41379720  0.98760890  0.48049521    -0.13800
F1110       F  0.39910216  0.97057151  0.39746041    -0.16200
F1111       F  0.54343566  0.06350893  0.44060068    -0.16200
F1112       F  0.52318556  0.05631518  0.35323395    -0.13800
C1113       C  0.52962269  0.30048173  0.50104587     0.24200
C1114       C  0.48512094  0.29756556  0.50886800    -0.23900
C1115       C  0.45926756  0.32403875  0.48269762     0.19100
C1116       C  0.47633941  0.36385056  0.46761858     0.24200
C1117       C  0.51790045  0.37617849  0.48090250    -0.23800
C1118       C  0.54637799  0.34209648  0.49097383     0.19100
F1119       F  0.58868267  0.35020750  0.49577225    -0.13800
F1120       F  0.55607998  0.26881645  0.51645958    -0.16200
F1121       F  0.45214819  0.39106136  0.44308008    -0.16200
F1122       F  0.41642342  0.31641567  0.48017753    -0.13800
C1123       C  0.52245163  0.11016597  0.59920372     0.24200
C1124       C  0.55910532  0.13134191  0.58137947    -0.23900
C1125       C  0.59774233  0.10718641  0.58001355     0.19100
C1126       C  0.59622409  0.06182551  0.59022379     0.24200
C1127       C  0.55636490  0.04268273  0.60246040    -0.23800
C1128       C  0.52674104  0.07122493  0.62066472     0.19100
F1129       F  0.49538930  0.05841923  0.64933199    -0.13800
F1130       F  0.48465209  0.12991598  0.60581374    -0.16200
F1131       F  0.63154830  0.03616001  0.58387115    -0.16200
F1132       F  0.63538956  0.12666647  0.56813109    -0.13800
C1133       C  0.18347262  0.21753963  0.63653503     0.24200
C1134       C  0.22673947  0.22363301  0.64957170    -0.23900
C1135       C  0.25439805  0.24712281  0.62037103     0.19100
C1136       C  0.23825586  0.26388455  0.58115378     0.24200
C1137       C  0.20004152  0.24519838  0.56583483    -0.23800
C1138       C  0.16879399  0.23670385  0.59808699     0.19100
F1139       F  0.12769108  0.22882255  0.58594330    -0.13800
F1140       F  0.15700837  0.18853422  0.65693977    -0.16200
F1141       F  0.26564889  0.28395967  0.55235752    -0.16200
F1142       F  0.29592953  0.25583677  0.63026429    -0.13800
C1143       C  0.25360952  0.12659980  0.74447407     0.24200
C1144       C  0.22269147  0.15920046  0.75639720    -0.23900
C1145       C  0.20568073  0.15780337  0.80040967     0.19100
C1146       C  0.22014732  0.12610666  0.82981306     0.24200
C1147       C  0.23784690  0.08786438  0.81122113    -0.23800
C1148       C  0.26570086  0.09454345  0.77495679     0.19100
F1149       F  0.29182266  0.06106542  0.76104150    -0.13800
F1150       F  0.26594689  0.12038612  0.70193241    -0.16200
F1151       F  0.20255781  0.12490984  0.87109554    -0.16200
F1152       F  0.17310508  0.18429808  0.81471491    -0.13800
C1153       C  0.26558126  0.34773788  0.77464503     0.24200
C1154       C  0.26016551  0.32029143  0.73734142    -0.23900
C1155       C  0.25313564  0.34097226  0.69664348     0.19100
C1156       C  0.25790019  0.38613185  0.69209706     0.24200
C1157       C  0.26894531  0.41175521  0.72854248    -0.23800
C1158       C  0.26562703  0.39329159  0.77051923     0.19100
F1159       F  0.26816893  0.41892184  0.80729181    -0.13800
F1160       F  0.27302218  0.33116072  0.81493047    -0.16200
F1161       F  0.25531087  0.40422743  0.65141026    -0.16200
F1162       F  0.23882476  0.31877224  0.66153140    -0.13800
C1163       C  0.34025738  0.24186901  0.75921488     0.24200
C1164       C  0.31501286  0.22356760  0.72488178    -0.23900
C1165       C  0.33205580  0.18669990  0.70171769     0.19100
C1166       C  0.37092367  0.16825131  0.71352544     0.24200
C1167       C  0.39958488  0.19519435  0.73626085    -0.23800
C1168       C  0.38235521  0.22740804  0.76501430     0.19100
F1169       F  0.40867867  0.25129220  0.79143223    -0.13800
F1170       F  0.32655945  0.27578137  0.78508307    -0.16200
F1171       F  0.38563859  0.13255204  0.69024826    -0.16200
F1172       F  0.31380973  0.17107383  0.66457995    -0.13800
C1173       C  0.09394822  0.51745312  0.04647258     0.24200
C1174       C  0.06702949  0.49973517  0.01340559    -0.23900
C1175       C  0.08461747  0.49621699  0.97009506     0.19100
C1176       C  0.12485020  0.51306998  0.96014829     0.24200
C1177       C  0.15358684  0.51516620  0.99437592    -0.23800
C1178       C  0.13747988  0.52489739  0.03673331     0.19100
F1179       F  0.16489730  0.53601814  0.06924008    -0.13800
F1180       F  0.07966481  0.52469529  0.08835336    -0.16200
F1181       F  0.13984119  0.50959787  0.91782940    -0.16200
F1182       F  0.06386670  0.47650972  0.93691480    -0.13800
C1183       C  0.39987940  0.47713974  0.07631062     0.24200
C1184       C  0.38703095  0.44001618  0.05239969    -0.23900
C1185       C  0.41800546  0.41137425  0.03253832     0.19100
C1186       C  0.45926280  0.42493077  0.02768472     0.24200
C1187       C  0.46846037  0.46739818  0.04030576    -0.23800
C1188       C  0.44208760  0.49063555  0.07076994     0.19100
F1189       F  0.45531890  0.52907452  0.08915685    -0.13800
F1190       F  0.37101189  0.50344420  0.09818325    -0.16200
F1191       F  0.48575019  0.40252027  0.99918949    -0.16200
F1192       F  0.40773724  0.37621999  0.00724015    -0.13800
C1193       C  0.18332150  0.30156088  0.82431139     0.24200
C1194       C  0.20845139  0.26702668  0.80923907    -0.23900
C1195       C  0.23730099  0.24577249  0.83767694     0.19100
C1196       C  0.24079653  0.26002583  0.88109121     0.24200
C1197       C  0.22265277  0.30068478  0.89272565    -0.23800
C1198       C  0.19334337  0.32095269  0.86346071     0.19100
F1199       F  0.18614574  0.36498565  0.86290298    -0.13800
F1200       F  0.16047037  0.32597696  0.79578296    -0.16200
F1201       F  0.27061455  0.24100525  0.90693322    -0.16200
F1202       F  0.26678352  0.21636634  0.82189492    -0.13800
C1203       C  0.16593163  0.30199515  0.25516825     0.24200
C1204       C  0.20554245  0.28600350  0.26621832    -0.23900
C1205       C  0.23203489  0.31276899  0.29322813     0.19100
C1206       C  0.22257226  0.35630169  0.30017205     0.24200
C1207       C  0.19042544  0.37452092  0.27574005    -0.23800
C1208       C  0.16318614  0.34694707  0.25081852     0.19100
F1209       F  0.13700590  0.36174155  0.21944897    -0.13800
F1210       F  0.13585418  0.27529543  0.23702967    -0.16200
F1211       F  0.24880030  0.38191956  0.32512641    -0.16200
F1212       F  0.27044847  0.30044422  0.30706225    -0.13800
C1213       C  0.32655825  0.23843610  0.37545975     0.24200
C1214       C  0.29134453  0.23964454  0.40407355    -0.23900
C1215       C  0.25120864  0.24525348  0.38524403     0.19100
C1216       C  0.24405215  0.22655439  0.34348406     0.24200
C1217       C  0.27970043  0.21524724  0.31528082    -0.23800
C1218       C  0.32112768  0.21971918  0.33362616     0.19100
F1219       F  0.35711365  0.20806256  0.31143021    -0.13800
F1220       F  0.36670200  0.24082692  0.39211986    -0.16200
F1221       F  0.20277959  0.22282865  0.33054896    -0.16200
F1222       F  0.21739915  0.25870359  0.41091720    -0.13800
C1223       C  0.33588117  0.34091518  0.19818640     0.24200
C1224       C  0.32647502  0.31099679  0.23184856    -0.23900
C1225       C  0.35668222  0.30883110  0.26635137     0.19100
C1226       C  0.39933061  0.31826377  0.25761397     0.24200
C1227       C  0.41012166  0.32941689  0.21498795    -0.23800
C1228       C  0.37884235  0.35232121  0.19122075     0.19100
F1229       F  0.39005691  0.38165990  0.15959533    -0.13800
F1230       F  0.30535585  0.35505584  0.17034073    -0.16200
F1231       F  0.42996432  0.30544826  0.28610326    -0.16200
F1232       F  0.34653547  0.29652097  0.30740491    -0.13800
C1233       C  0.29779517  0.12851877  0.18965057     0.24200
C1234       C  0.32303666  0.11196149  0.22291465    -0.23900
C1235       C  0.35346248  0.14004271  0.24259516     0.19100
C1236       C  0.36138373  0.18119255  0.22502752     0.24200
C1237       C  0.32659703  0.20098697  0.20627289    -0.23800
C1238       C  0.29897867  0.17317908  0.18132630     0.19100
F1239       F  0.26731982  0.18836875  0.15621285    -0.13800
F1240       F  0.27125048  0.10173899  0.16637189    -0.16200
F1241       F  0.39449499  0.20615060  0.23996895    -0.16200
F1242       F  0.37471815  0.12904577  0.27903781    -0.13800
C1243       C  0.27336103  0.25465498  0.08294754     0.24200
C1244       C  0.23213067  0.26391687  0.06793127    -0.23900
C1245       C  0.19868323  0.25966955  0.09829852     0.19100
C1246       C  0.20650252  0.27366478  0.14134290     0.24200
C1247       C  0.24900483  0.27552279  0.15744623    -0.23800
C1248       C  0.28304754  0.26621227  0.12658840     0.19100
F1249       F  0.32480417  0.26565825  0.13830033    -0.13800
F1250       F  0.30557691  0.24618898  0.05335623    -0.16200
F1251       F  0.17223549  0.28599557  0.16612448    -0.16200
F1252       F  0.15759282  0.25844255  0.08406393    -0.13800
C1253       C  0.96925610  0.33238539  0.48608336     0.24200
C1254       C  0.01084727  0.31997213  0.47191057    -0.23900
C1255       C  0.04395355  0.35055899  0.47619062     0.19100
C1256       C  0.03461840  0.39453814  0.48520201     0.24200
C1257       C  0.99203833  0.40942620  0.49458860    -0.23800
C1258       C  0.95958567  0.37672720  0.49573075     0.19100
F1259       F  0.91787823  0.38744774  0.50302465    -0.13800
F1260       F  0.93707976  0.30212785  0.48642962    -0.16200
F1261       F  0.06828853  0.42198241  0.48152513    -0.16200
F1262       F  0.08527148  0.33946766  0.46574992    -0.13800
C1263       C  0.90015590  0.25830521  0.22174573     0.24200
C1264       C  0.91412363  0.29605413  0.24483267    -0.23900
C1265       C  0.88209297  0.32407161  0.26153353     0.19100
C1266       C  0.84598032  0.30335786  0.27992241     0.24200
C1267       C  0.83241892  0.26159753  0.26405135    -0.23800
C1268       C  0.86034735  0.23934971  0.23346693     0.19100
F1269       F  0.85017299  0.19941158  0.21585629    -0.13800
F1270       F  0.92850646  0.23492720  0.19620805    -0.16200
F1271       F  0.83066853  0.31943144  0.31886366    -0.16200
F1272       F  0.89354443  0.36426598  0.27798599    -0.13800
C1273       C  0.15184919  0.14010786  0.28423224     0.24200
C1274       C  0.11955839  0.16272094  0.26163811    -0.23900
C1275       C  0.12931222  0.17865879  0.21989656     0.19100
C1276       C  0.17238565  0.18228927  0.20746150     0.24200
C1277       C  0.20408158  0.17748153  0.23974647    -0.23800
C1278       C  0.19488849  0.14822260  0.27381171     0.19100
F1279       F  0.22596114  0.13426542  0.30120827    -0.13800
F1280       F  0.14218830  0.11641996  0.32026270    -0.16200
F1281       F  0.18277752  0.19402018  0.16598713    -0.16200
F1282       F  0.09806443  0.19402047  0.19350167    -0.13800
C1283       C  0.00407456  0.46441959  0.67586581     0.24200
C1284       C  0.97668382  0.42928624  0.68631779    -0.23900
C1285       C  0.96431590  0.40344551  0.65036886     0.19100
C1286       C  0.95395887  0.42573928  0.61176782     0.24200
C1287       C  0.96533406  0.47107585  0.60675453    -0.23800
C1288       C  0.99133087  0.48994875  0.64024065     0.19100
F1289       F  0.99811313  0.53404738  0.64314698    -0.13800
F1290       F  0.02591777  0.48465652  0.70877529    -0.16200
F1291       F  0.92825500  0.40453814  0.58312139    -0.16200
F1292       F  0.94840107  0.36226376  0.65715664    -0.13800
C1293       C  0.99411636  0.51704789  0.85349172     0.24200
C1294       C  0.96928555  0.55509419  0.84530896    -0.23900
C1295       C  0.95321394  0.57862258  0.88165428     0.19100
C1296       C  0.94502188  0.55586755  0.92040993     0.24200
C1297       C  0.96422739  0.51395188  0.92834054    -0.23800
C1298       C  0.98879371  0.49498170  0.89363620     0.19100
F1299       F  0.00246961  0.45259122  0.89612543    -0.13800
F1300       F  0.01404685  0.49542853  0.81934443    -0.16200
F1301       F  0.91410112  0.57332410  0.94729451    -0.16200
F1302       F  0.93363000  0.61826191  0.87608711    -0.13800
C1303       C  0.73718813  0.65250449  0.69975966     0.24200
C1304       C  0.77383757  0.67765867  0.68648457    -0.23900
C1305       C  0.80007849  0.65926758  0.65262406     0.19100
C1306       C  0.79304759  0.61587587  0.63823620     0.24200
C1307       C  0.76992373  0.58816957  0.66664565    -0.23800
C1308       C  0.73499653  0.60750790  0.68902147     0.19100
F1309       F  0.70608620  0.58159579  0.71063915    -0.13800
F1310       F  0.70716060  0.66809083  0.72865192    -0.16200
F1311       F  0.81972118  0.59804604  0.60705746    -0.16200
F1312       F  0.83542720  0.68048625  0.63741589    -0.13800
C1313       C  0.75936816  0.15644607  0.76648946     0.24200
C1314       C  0.73654189  0.19258864  0.74936250    -0.23900
C1315       C  0.71176384  0.18474061  0.71156712     0.19100
C1316       C  0.71577399  0.14596904  0.68733503     0.24200
C1317       C  0.73432967  0.10925423  0.70672621    -0.23800
C1318       C  0.75992008  0.11584622  0.74422242     0.19100
F1319       F  0.78058388  0.08131090  0.76279072    -0.13800
F1320       F  0.78132053  0.15994843  0.80467815    -0.16200
F1321       F  0.69275032  0.14171121  0.64991175    -0.16200
F1322       F  0.67899498  0.21140207  0.70077755    -0.13800
C1323       C  0.73272173  0.27415624  0.85646869     0.24200
C1324       C  0.77145457  0.25483553  0.83962295    -0.23900
C1325       C  0.80461867  0.24863113  0.86945971     0.19100
C1326       C  0.79644556  0.25604192  0.91436079     0.24200
C1327       C  0.75326461  0.25503741  0.92893561    -0.23800
C1328       C  0.72340324  0.27365186  0.90136704     0.19100
F1329       F  0.68358526  0.28485676  0.91669843    -0.13800
F1330       F  0.70588106  0.29694379  0.83116330    -0.16200
F1331       F  0.82834942  0.25119230  0.94373806    -0.16200
F1332       F  0.84439071  0.23702277  0.85467293    -0.13800
C1333       C  0.66956241  0.32681954  0.72105260     0.24200
C1334       C  0.68281039  0.28926998  0.74405058    -0.23900
C1335       C  0.65214646  0.26803828  0.77196154     0.19100
C1336       C  0.61020257  0.28385980  0.77522343     0.24200
C1337       C  0.59763519  0.31826262  0.74773653    -0.23800
C1338       C  0.62964008  0.34539114  0.72965315     0.19100
F1339       F  0.61920438  0.38304597  0.70828751    -0.13800
F1340       F  0.69402615  0.34450752  0.68829363    -0.16200
F1341       F  0.58011599  0.25970982  0.79725913    -0.16200
F1342       F  0.66175698  0.23112922  0.79485898    -0.13800
C1343       C  0.82275622  0.29868756  0.66854653     0.24200
C1344       C  0.77981998  0.28888314  0.68072668    -0.23900
C1345       C  0.75695233  0.25998070  0.65263764     0.19100
C1346       C  0.77804479  0.23778030  0.61799645     0.24200
C1347       C  0.81538306  0.25794790  0.60188249    -0.23800
C1348       C  0.84266956  0.27598985  0.63349233     0.19100
F1349       F  0.88363563  0.28696855  0.62188783    -0.13800
F1350       F  0.84290458  0.33436053  0.68563489    -0.16200
F1351       F  0.75423886  0.21286514  0.59006264    -0.16200
F1352       F  0.71361975  0.26111503  0.65216447    -0.13800
C1353       C  0.79761467  0.35134518  0.83384021     0.24200
C1354       C  0.77623387  0.34836206  0.79261859    -0.23900
C1355       C  0.74076088  0.37734655  0.78684753     0.19100
C1356       C  0.72980234  0.40833872  0.81999862     0.24200
C1357       C  0.76313617  0.41964229  0.84823679    -0.23800
C1358       C  0.78468065  0.38336139  0.86510792     0.19100
F1359       F  0.80753004  0.38832204  0.90252471    -0.13800
F1360       F  0.83436639  0.32890322  0.84133773    -0.16200
F1361       F  0.69929615  0.43903616  0.81165405    -0.16200
F1362       F  0.72682506  0.38633963  0.74625491    -0.13800
C1363       C  0.40294160  0.63666206  0.94328252     0.24200
C1364       C  0.42871507  0.66638357  0.96720265    -0.23900
C1365       C  0.43556549  0.65640101  0.01097473     0.19100
C1366       C  0.43114844  0.61231754  0.02266164     0.24200
C1367       C  0.43177168  0.58053822  0.98805343    -0.23800
C1368       C  0.40773165  0.59185230  0.95151822     0.19100
F1369       F  0.39474223  0.56103302  0.92183027    -0.13800
F1370       F  0.37326940  0.65089648  0.91452520    -0.16200
F1371       F  0.42983752  0.60074544  0.06542447    -0.16200
F1372       F  0.44991419  0.68741222  0.03980737    -0.13800
C1373       C  0.67218631  0.75283885  0.74281245     0.24200
C1374       C  0.70451354  0.76902169  0.77093507    -0.23900
C1375       C  0.69557917  0.77196464  0.81600465     0.19100
C1376       C  0.65496874  0.76313262  0.83160371     0.24200
C1377       C  0.62262289  0.74935013  0.80295049    -0.23800
C1378       C  0.63121057  0.74481012  0.75847453     0.19100
F1379       F  0.60072222  0.72924770  0.73079683    -0.13800
F1380       F  0.68126986  0.73667305  0.70241131    -0.16200
F1381       F  0.64911504  0.76654527  0.87523784    -0.16200
F1382       F  0.72651769  0.77761659  0.84621812    -0.13800
C1383       C  0.55321383  0.97457543  0.91048128     0.24200
C1384       C  0.51465680  0.98726687  0.89078080    -0.23900
C1385       C  0.49958949  0.95838354  0.85912134     0.19100
C1386       C  0.50204687  0.91422198  0.86917040     0.24200
C1387       C  0.52732985  0.90027225  0.90494260    -0.23800
C1388       C  0.55859846  0.92985956  0.92036886     0.19100
F1389       F  0.59234113  0.91634913  0.94456915    -0.13800
F1390       F  0.58317253  0.00518537  0.92119132    -0.16200
F1391       F  0.47740831  0.88632872  0.84552347    -0.16200
F1392       F  0.46999700  0.97164201  0.82987730    -0.13800
C1393       C  0.24481699  0.91002364  0.67088153     0.24200
C1394       C  0.25112022  0.94224557  0.70313888    -0.23900
C1395       C  0.26935961  0.92648675  0.74195675     0.19100
C1396       C  0.25270134  0.88664662  0.75849751     0.24200
C1397       C  0.22877469  0.85828161  0.73039976    -0.23800
C1398       C  0.22468469  0.87155226  0.68560628     0.19100
F1399       F  0.19601754  0.85284065  0.65812991    -0.13800
F1400       F  0.23965059  0.92235735  0.62840427    -0.16200
F1401       F  0.26027365  0.87609508  0.80100536    -0.16200
F1402       F  0.28847555  0.95529450  0.77002095    -0.13800
C1403       C  0.23922408  0.66779668  0.74277586     0.24200
C1404       C  0.25764403  0.69551548  0.71008908    -0.23900
C1405       C  0.28997554  0.68022137  0.68266898     0.19100
C1406       C  0.31270060  0.64507454  0.69649756     0.24200
C1407       C  0.29640458  0.61620775  0.72947816    -0.23800
C1408       C  0.25689657  0.62609306  0.74992931     0.19100
F1409       F  0.24163927  0.60127116  0.78380688    -0.13800
F1410       F  0.20904363  0.68339363  0.77177278    -0.16200
F1411       F  0.35525151  0.65056729  0.68850912    -0.16200
F1412       F  0.31081689  0.70799033  0.65489106    -0.13800
C1413       C  0.34337278  0.72942196  0.75617059     0.24200
C1414       C  0.31863145  0.76800787  0.75301537    -0.23900
C1415       C  0.34080701  0.80767119  0.74330645     0.19100
C1416       C  0.38562006  0.80907280  0.74246000     0.24200
C1417       C  0.40869134  0.77073133  0.75110041    -0.23800
C1418       C  0.38730629  0.73019335  0.74718007     0.19100
F1419       F  0.40993002  0.69196241  0.74969735    -0.13800
F1420       F  0.32612255  0.69209812  0.77284997    -0.16200
F1421       F  0.40604552  0.84852539  0.73841169    -0.16200
F1422       F  0.32018052  0.84473790  0.73257563    -0.13800
C1423       C  0.38431475  0.54294822  0.42634606     0.24200
C1424       C  0.35055258  0.52389417  0.45046859    -0.23900
C1425       C  0.35859338  0.48646783  0.47535898     0.19100
C1426       C  0.40042267  0.47058258  0.47869556     0.24200
C1427       C  0.43602325  0.49516176  0.46236723    -0.23800
C1428       C  0.42661549  0.53106450  0.43444223     0.19100
F1429       F  0.45779299  0.55610584  0.41542486    -0.13800
F1430       F  0.37688049  0.57776507  0.39974490    -0.16200
F1431       F  0.40491625  0.43074464  0.49711921    -0.16200
F1432       F  0.32623467  0.46673035  0.49847700    -0.13800
C1433       C  0.10692286  0.56016012  0.61297820     0.24200
C1434       C  0.13952073  0.53132430  0.59799558    -0.23900
C1435       C  0.12772509  0.48943547  0.58268846     0.19100
C1436       C  0.08517450  0.48236331  0.57111993     0.24200
C1437       C  0.05722034  0.51898379  0.56878850    -0.23800
C1438       C  0.06741502  0.55716871  0.59294858     0.19100
F1439       F  0.04037503  0.59219655  0.59530169    -0.13800
F1440       F  0.11639176  0.59749389  0.63605728    -0.16200
F1441       F  0.07219176  0.44104378  0.56048845    -0.16200
F1442       F  0.15786845  0.45802126  0.57379550    -0.13800
C1443       C  0.29587158  0.77820256  0.58834880     0.24200
C1444       C  0.26844598  0.75674014  0.55925735    -0.23900
C1445       C  0.22429638  0.76487245  0.56582078     0.19100
C1446       C  0.20895871  0.77255780  0.60894698     0.24200
C1447       C  0.23771968  0.77687750  0.64310647    -0.23800
C1448       C  0.28068265  0.78729141  0.63115926     0.19100
F1449       F  0.30922933  0.80030148  0.66131620    -0.13800
F1450       F  0.33882295  0.77863610  0.57980260    -0.16200
F1451       F  0.16684636  0.77272443  0.61845913    -0.16200
F1452       F  0.19611618  0.75497354  0.53365297    -0.13800
C1453       C  0.34816990  0.76272218  0.25756527     0.24200
C1454       C  0.31576032  0.73927492  0.28044975    -0.23900
C1455       C  0.32663739  0.69749742  0.29715469     0.19100
C1456       C  0.36351992  0.67582625  0.28313140     0.24200
C1457       C  0.39742826  0.70134612  0.26699785    -0.23800
C1458       C  0.38803298  0.74297058  0.24885833     0.19100
F1459       F  0.41984213  0.76768478  0.23021810    -0.13800
F1460       F  0.34191371  0.80484845  0.24426701    -0.16200
F1461       F  0.37039551  0.63417319  0.29783257    -0.16200
F1462       F  0.30547405  0.68048841  0.33224678    -0.13800
C1463       C  0.24824340  0.85482707  0.21099721     0.24200
C1464       C  0.25291635  0.82713792  0.24802082    -0.23900
C1465       C  0.24834752  0.84760717  0.29027142     0.19100
C1466       C  0.25005862  0.89319319  0.29481129     0.24200
C1467       C  0.25965005  0.91773996  0.25771878    -0.23800
C1468       C  0.24685817  0.90055041  0.21752678     0.19100
F1469       F  0.24033636  0.92842026  0.18392726    -0.13800
F1470       F  0.24529238  0.83886851  0.16937560    -0.16200
F1471       F  0.25342854  0.91169375  0.33558032    -0.16200
F1472       F  0.24128008  0.82456542  0.32720371    -0.13800
C1473       C  0.24447050  0.64020935  0.20800473     0.24200
C1474       C  0.23861024  0.65532652  0.25232231    -0.23900
C1475       C  0.24865123  0.62548792  0.28597749     0.19100
C1476       C  0.25794889  0.58156621  0.27569467     0.24200
C1477       C  0.24562077  0.56694736  0.23428830    -0.23800
C1478       C  0.25332225  0.59567818  0.19966117     0.19100
F1479       F  0.25186679  0.58001992  0.15758497    -0.13800
F1480       F  0.23515833  0.66480279  0.17290037    -0.16200
F1481       F  0.26233344  0.55204227  0.30864755    -0.16200
F1482       F  0.24174638  0.63647217  0.32839736    -0.13800
C1483       C  0.24105229  0.75269490  0.37633497     0.24200
C1484       C  0.21956357  0.72939661  0.34260771    -0.23900
C1485       C  0.17846243  0.71173849  0.35310181     0.19100
C1486       C  0.15968661  0.71831254  0.39458423     0.24200
C1487       C  0.18665205  0.73021885  0.42876000    -0.23800
C1488       C  0.22185162  0.75753353  0.41810125     0.19100
F1489       F  0.24532109  0.77584538  0.45090838    -0.13800
F1490       F  0.28205703  0.76722745  0.37054288    -0.16200
F1491       F  0.12151972  0.69833596  0.40380405    -0.16200
F1492       F  0.15964046  0.68128590  0.32721645    -0.13800
C1493       C  0.94715588  0.62220708  0.01675662     0.24200
C1494       C  0.97558198  0.58679937  0.01188943    -0.23900
C1495       C  0.01439557  0.59532655  0.98818461     0.19100
C1496       C  0.02965561  0.63843723  0.98499169     0.24200
C1497       C  0.00655387  0.67150981  0.00669424    -0.23800
C1498       C  0.96201775  0.66513005  0.00863515     0.19100
F1499       F  0.93527713  0.70035662  0.01183856    -0.13800
F1500       F  0.90618939  0.61462241  0.02915563    -0.16200
F1501       F  0.06981522  0.64643494  0.96885580    -0.16200
F1502       F  0.03458454  0.56418232  0.96405073    -0.13800
C1503       C  0.87869789  0.70279690  0.26197958     0.24200
C1504       C  0.89104043  0.72345250  0.22260592    -0.23900
C1505       C  0.85959591  0.73441753  0.19248994     0.19100
C1506       C  0.81970213  0.71667193  0.19662960     0.24200
C1507       C  0.80500482  0.71192425  0.23912391    -0.23800
C1508       C  0.83456994  0.70097759  0.27226202     0.19100
F1509       F  0.82114368  0.68747051  0.31262621    -0.13800
F1510       F  0.90822538  0.68880239  0.29103176    -0.16200
F1511       F  0.79236261  0.71913620  0.16268379    -0.16200
F1512       F  0.86417705  0.76919593  0.16552209    -0.13800
C1513       C  0.08148943  0.71744527  0.26346003     0.24200
C1514       C  0.06941531  0.76040943  0.25277463    -0.23900
C1515       C  0.09933230  0.79349520  0.26088378     0.19100
C1516       C  0.14244283  0.78317180  0.25301372     0.24200
C1517       C  0.15514860  0.73846818  0.24580637    -0.23800
C1518       C  0.12394162  0.70550274  0.25347503     0.19100
F1519       F  0.13422249  0.66223508  0.24963753    -0.13800
F1520       F  0.05102340  0.68555221  0.26684578    -0.16200
F1521       F  0.16955565  0.81739701  0.24873180    -0.16200
F1522       F  0.08699336  0.83656688  0.26048519    -0.13800
C1523       C  0.18323654  0.78072405  0.83306173     0.24200
C1524       C  0.22578687  0.77328116  0.81779436    -0.23900
C1525       C  0.25157166  0.74543620  0.84410708     0.19100
C1526       C  0.23560298  0.72923683  0.88425887     0.24200
C1527       C  0.19719068  0.74706503  0.90122202    -0.23800
C1528       C  0.16702431  0.75928152  0.87015818     0.19100
F1529       F  0.12587580  0.76799077  0.88337713    -0.13800
F1530       F  0.16063898  0.81542069  0.81914120    -0.16200
F1531       F  0.26301780  0.70904765  0.91192662    -0.16200
F1532       F  0.29374892  0.73905499  0.83531896    -0.13800
C1533       C  0.29354278  0.75127579  0.10781300     0.24200
C1534       C  0.26100176  0.75748063  0.07771174    -0.23900
C1535       C  0.21896553  0.74533320  0.09035173     0.19100
C1536       C  0.20763166  0.74445433  0.13519682     0.24200
C1537       C  0.23945168  0.75074362  0.16702908    -0.23800
C1538       C  0.28284764  0.74862639  0.15245036     0.19100
F1539       F  0.31515688  0.74471886  0.18080307    -0.13800
F1540       F  0.33520653  0.75778650  0.09546449    -0.16200
F1541       F  0.16589479  0.73885885  0.14739204    -0.16200
F1542       F  0.18770383  0.74380049  0.05982855    -0.13800
C1543       C  0.34836176  0.95417626  0.88867789     0.24200
C1544       C  0.32162561  0.97319828  0.92137245    -0.23900
C1545       C  0.33873393  0.00646136  0.94778980     0.19100
C1546       C  0.38314596  0.00889390  0.95174066     0.24200
C1547       C  0.40939693  0.97566838  0.93205314    -0.23800
C1548       C  0.39166812  0.95063412  0.89777990     0.19100
F1549       F  0.41434042  0.91994423  0.87554534    -0.13800
F1550       F  0.33196605  0.92685297  0.85728010    -0.16200
F1551       F  0.39989285  0.04309659  0.97454943    -0.16200
F1552       F  0.31274627  0.03063999  0.97512013    -0.13800
C1553       C  0.08112540  0.75849841  0.76188751     0.24200
C1554       C  0.07332402  0.71848319  0.73970505    -0.23900
C1555       C  0.10945343  0.69317602  0.72857576     0.19100
C1556       C  0.14675611  0.71572790  0.71524836     0.24200
C1557       C  0.15271018  0.76117801  0.72677364    -0.23800
C1558       C  0.11842912  0.78209119  0.75012336     0.19100
F1559       F  0.11792741  0.82644900  0.75585327    -0.13800
F1560       F  0.04733414  0.78098362  0.78000152    -0.16200
F1561       F  0.17316387  0.69419135  0.68626616    -0.16200
F1562       F  0.10387390  0.65090867  0.71425223    -0.13800
C1563       C  0.90855371  0.63311927  0.52956772     0.24200
C1564       C  0.94000950  0.66120384  0.51171059    -0.23900
C1565       C  0.97409884  0.64062808  0.48931197     0.19100
C1566       C  0.98998160  0.60197661  0.50782007     0.24200
C1567       C  0.96353516  0.57608051  0.53679265    -0.23800
C1568       C  0.92181404  0.59235356  0.54622323     0.19100
F1569       F  0.89638452  0.57292699  0.57666135    -0.13800
F1570       F  0.87039775  0.65031130  0.54387121    -0.16200
F1571       F  0.03202107  0.59270983  0.49959144    -0.16200
F1572       F  0.00107323  0.66562549  0.46426185    -0.13800
C1573       C  0.90977642  0.74684270  0.75698702     0.24200
C1574       C  0.92733588  0.78819610  0.74688798    -0.23900
C1575       C  0.89709151  0.82190302  0.74306694     0.19100
C1576       C  0.86233394  0.81169003  0.71620574     0.24200
C1577       C  0.84921155  0.76701154  0.71083892    -0.23800
C1578       C  0.87379265  0.73415213  0.73280726     0.19100
F1579       F  0.86384478  0.69049632  0.73078715    -0.13800
F1580       F  0.93488100  0.71515675  0.77460299    -0.16200
F1581       F  0.84641150  0.84412443  0.69117116    -0.16200
F1582       F  0.90977385  0.86466208  0.74712053    -0.13800
C1583       C  0.91062784  0.94619282  0.58612374     0.24200
C1584       C  0.92476923  0.98167462  0.56134589    -0.23900
C1585       C  0.89599661  0.01703570  0.55478654     0.19100
C1586       C  0.85246749  0.01196419  0.56636088     0.24200
C1587       C  0.83887043  0.97287613  0.58710534    -0.23800
C1588       C  0.87037785  0.94686413  0.60650187     0.19100
F1589       F  0.85899250  0.91222326  0.63219514    -0.13800
F1590       F  0.93188397  0.90788511  0.58269421    -0.16200
F1591       F  0.82318561  0.04091013  0.55091762    -0.16200
F1592       F  0.90880737  0.05408022  0.53362090    -0.13800
C1593       C  0.11750158  0.00434966  0.46114430     0.24200
C1594       C  0.13306974  0.03870336  0.43527166    -0.23900
C1595       C  0.10446962  0.07199006  0.42406048     0.19100
C1596       C  0.06842227  0.08021046  0.45057928     0.24200
C1597       C  0.05186376  0.04645014  0.47609848    -0.23800
C1598       C  0.07603739  0.00726229  0.47882837     0.19100
F1599       F  0.06047638  0.97294699  0.50101054    -0.13800
F1600       F  0.14329999  0.97010619  0.47189158    -0.16200
F1601       F  0.05050941  0.12090204  0.45228403    -0.16200
F1602       F  0.11515784  0.10013986  0.39213969    -0.13800
C1603       C  0.05011774  0.11153249  0.57148534     0.24200
C1604       C  0.00966715  0.09162354  0.56840266    -0.23900
C1605       C  0.98250382  0.09410614  0.60645800     0.19100
C1606       C  0.00137968  0.09427900  0.64775642     0.24200
C1607       C  0.04560783  0.10044582  0.64995298    -0.23800
C1608       C  0.06767361  0.11718310  0.61300339     0.19100
F1609       F  0.10931618  0.12931409  0.61573981    -0.13800
F1610       F  0.07576080  0.11754005  0.53562381    -0.16200
F1611       F  0.97833614  0.08109119  0.68371342    -0.16200
F1612       F  0.94031558  0.08382286  0.60432553    -0.13800
C1613       C  0.92117012  0.09847730  0.43445284     0.24200
C1614       C  0.95876923  0.11806629  0.41728228    -0.23900
C1615       C  0.98927953  0.08917407  0.39594390     0.19100
C1616       C  0.98601645  0.04376297  0.40020745     0.24200
C1617       C  0.95857418  0.02843008  0.43288195    -0.23800
C1618       C  0.92023862  0.05236629  0.43947802     0.19100
F1619       F  0.88490132  0.03224195  0.45666037    -0.13800
F1620       F  0.88737767  0.12343398  0.44873925    -0.16200
F1621       F  0.01886270  0.01788653  0.38507490    -0.16200
F1622       F  0.02503662  0.10352686  0.37463586    -0.13800
C1623       C  0.07537837  0.93732075  0.57817143     0.24200
C1624       C  0.04285725  0.90713409  0.58929392    -0.23900
C1625       C  0.00989097  0.92350707  0.61932178     0.19100
C1626       C  0.00515692  0.96841802  0.62751216     0.24200
C1627       C  0.02521980  0.99614921  0.59801320    -0.23800
C1628       C  0.06710599  0.98291732  0.58486683     0.19100
F1629       F  0.09608304  0.01340588  0.57080062    -0.13800
F1630       F  0.11203409  0.92372036  0.55727959    -0.16200
F1631       F  0.97133952  0.98339125  0.65238687    -0.16200
F1632       F  0.98093476  0.89770952  0.64047479    -0.13800
C1633       C  0.74842991  0.89296880  0.27226136     0.24200
C1634       C  0.76316284  0.90092714  0.22949153    -0.23900
C1635       C  0.76469941  0.86639028  0.19940399     0.19100
C1636       C  0.77084876  0.82433134  0.21544060     0.24200
C1637       C  0.76129053  0.81416422  0.26009902    -0.23800
C1638       C  0.74922888  0.84996437  0.28805844     0.19100
F1639       F  0.74032158  0.84412411  0.33116890    -0.13800
F1640       F  0.74153337  0.92731195  0.30070354    -0.16200
F1641       F  0.78407546  0.79435624  0.18570374    -0.16200
F1642       F  0.77510684  0.87457968  0.15651379    -0.13800
C1643       C  0.75997785  0.09606292  0.21895362     0.24200
C1644       C  0.76333953  0.07855674  0.26113844    -0.23900
C1645       C  0.75007510  0.10522938  0.29665974     0.19100
C1646       C  0.75032870  0.15078651  0.29150521     0.24200
C1647       C  0.76488799  0.16912583  0.25121649    -0.23800
C1648       C  0.76739713  0.14101495  0.21417055     0.19100
F1649       F  0.77832796  0.15683816  0.17408112    -0.13800
F1650       F  0.76039331  0.06901312  0.18310308    -0.16200
F1651       F  0.73327099  0.17555721  0.32438102    -0.16200
F1652       F  0.74356784  0.08785910  0.33733315    -0.13800
C1653       C  0.92090700  0.90848675  0.41614401     0.24200
C1654       C  0.95071270  0.91984891  0.38262600    -0.23900
C1655       C  0.99346807  0.92289730  0.39423512     0.19100
C1656       C  0.00300880  0.92668574  0.43887652     0.24200
C1657       C  0.96945310  0.93598132  0.47027719    -0.23800
C1658       C  0.92899816  0.91980131  0.45986440     0.19100
F1659       F  0.89630164  0.92069371  0.48993293    -0.13800
F1660       F  0.88376581  0.88858628  0.40624430    -0.16200
F1661       F  0.04372626  0.91825290  0.45076013    -0.16200
F1662       F  0.02522201  0.92376891  0.36302747    -0.13800
C1663       C  0.06894433  0.23703841  0.74371144     0.24200
C1664       C  0.06779190  0.28266759  0.75210584    -0.23900
C1665       C  0.09712742  0.30883032  0.72920196     0.19100
C1666       C  0.13626482  0.28984449  0.71662890     0.24200
C1667       C  0.14407902  0.24495697  0.72645228    -0.23800
C1668       C  0.10822559  0.21780366  0.73209547     0.19100
F1669       F  0.11206956  0.17353506  0.73049199    -0.13800
F1670       F  0.03585102  0.21086292  0.75645444    -0.16200
F1671       F  0.16788625  0.31684061  0.70257781    -0.16200
F1672       F  0.09291391  0.35350118  0.72981219    -0.13800
C1673       C  0.02612756  0.39331755  0.01161519     0.24200
C1674       C  0.99061908  0.41913486  0.99787574    -0.23900
C1675       C  0.94947473  0.39857220  0.99982786     0.19100
C1676       C  0.94548518  0.35424506  0.01139677     0.24200
C1677       C  0.98222834  0.32823961  0.00823860    -0.23800
C1678       C  0.02067325  0.34833703  0.02049459     0.19100
F1679       F  0.05550913  0.32286793  0.02838763    -0.13800
F1680       F  0.06602480  0.41046640  0.01530178    -0.16200
F1681       F  0.90623510  0.33475442  0.00954621    -0.16200
F1682       F  0.91320554  0.41932416  0.98826345    -0.13800
C1683       C  0.86243263  0.21761344  0.74557398     0.24200
C1684       C  0.85316003  0.26230168  0.75598417    -0.23900
C1685       C  0.88735360  0.29244564  0.75121936     0.19100
C1686       C  0.92928247  0.27695368  0.74443915     0.24200
C1687       C  0.93714565  0.23285492  0.75593282    -0.23800
C1688       C  0.90503042  0.20277314  0.74511438     0.19100
F1689       F  0.91368689  0.15886575  0.74306125    -0.13800
F1690       F  0.83137227  0.18891372  0.73479142    -0.16200
F1691       F  0.96200852  0.30661520  0.74423336    -0.16200
F1692       F  0.88090756  0.33619665  0.75605361    -0.13800
C1693       C  0.83486474  0.98610822  0.02000413     0.24200
C1694       C  0.81844760  0.99878798  0.97942949    -0.23900
C1695       C  0.84253479  0.98727242  0.94221909     0.19100
C1696       C  0.88697698  0.98709252  0.94573371     0.24200
C1697       C  0.90647362  0.99311452  0.98739466    -0.23800
C1698       C  0.87937151  0.98729251  0.02501950     0.19100
F1699       F  0.89473607  0.98431085  0.06627914    -0.13800
F1700       F  0.80870373  0.98543191  0.05623154    -0.16200
F1701       F  0.90976308  0.98071284  0.90834255    -0.16200
F1702       F  0.82464664  0.98801515  0.90173880    -0.13800
C1703       C  0.00808824  0.90240979  0.83817686     0.24200
C1704       C  0.00828560  0.93484337  0.80626697    -0.23900
C1705       C  0.97984558  0.97002631  0.81418933     0.19100
C1706       C  0.97857539  0.98722095  0.85727927     0.24200
C1707       C  0.99627942  0.96205903  0.89188636    -0.23800
C1708       C  0.00780259  0.91751448  0.88178571     0.19100
F1709       F  0.02532563  0.89061479  0.91120602    -0.13800
F1710       F  0.02574880  0.86233391  0.82848171    -0.16200
F1711       F  0.96506300  0.02951405  0.86376420    -0.16200
F1712       F  0.96892330  0.99645006  0.78033697    -0.13800
C1713       C  0.95408481  0.83538771  0.98806596     0.24200
C1714       C  0.98916568  0.80901007  0.99824868    -0.23900
C1715       C  0.02963464  0.82500380  0.98584983     0.19100
C1716       C  0.03656680  0.87000975  0.99308675     0.24200
C1717       C  0.00100150  0.89879627  0.99825821    -0.23800
C1718       C  0.95928779  0.88094471  0.99228671     0.19100
F1719       F  0.92360002  0.90616695  0.99232230    -0.13800
F1720       F  0.91379868  0.81809214  0.98832313    -0.16200
F1721       F  0.07729460  0.88546446  0.99364674    -0.16200
F1722       F  0.06375580  0.79707736  0.98424443    -0.13800
C1723       C  0.08354619  0.00782899  0.01571794     0.24200
C1724       C  0.07375571  0.98546324  0.97589481    -0.23900
C1725       C  0.10667342  0.98174193  0.94437448     0.19100
C1726       C  0.14898596  0.99282485  0.95558878     0.24200
C1727       C  0.15868918  0.99537180  0.00052174    -0.23800
C1728       C  0.12630204  0.01237326  0.02827284     0.19100
F1729       F  0.13526519  0.02514065  0.07012790    -0.13800
F1730       F  0.05304058  0.02666763  0.04148128    -0.16200
F1731       F  0.18146357  0.98851813  0.92548689    -0.16200
F1732       F  0.09740255  0.96464671  0.90450213    -0.13800
C1733       C  0.98498302  0.04700582  0.12403291     0.24200
C1734       C  0.99015801  0.01530096  0.15622673    -0.23900
C1735       C  0.00641534  0.97399190  0.14299237     0.19100
C1736       C  0.00138513  0.95977421  0.09932617     0.24200
C1737       C  0.98189953  0.98803552  0.06848490    -0.23800
C1738       C  0.97367596  0.03222758  0.08232354     0.19100
F1739       F  0.95131706  0.06049666  0.05793532    -0.13800
F1740       F  0.97503968  0.08924821  0.13616946    -0.16200
F1741       F  0.01257480  0.91765530  0.08868048    -0.16200
F1742       F  0.01817296  0.94450650  0.17390491    -0.13800
C1743       C  0.03791545  0.07005683  0.93425239     0.24200
C1744       C  0.99740771  0.06102945  0.95467449    -0.23900
C1745       C  0.97813978  0.09513925  0.97954724     0.19100
C1746       C  0.00118048  0.13328052  0.99012087     0.24200
C1747       C  0.04027985  0.14256211  0.96784755    -0.23800
C1748       C  0.06052104  0.10850374  0.94386569     0.19100
F1749       F  0.09870680  0.11548487  0.92260628    -0.13800
F1750       F  0.05446172  0.04371462  0.90179449    -0.16200
F1751       F  0.98117773  0.16549111  0.01437487    -0.16200
F1752       F  0.93537241  0.09395725  0.98897427    -0.13800
loop_ 
_geom_bond_atom_site_label_1 
_geom_bond_atom_site_label_2 
_geom_bond_distance 
_geom_bond_site_symmetry_2 
_ccdc_geom_bond_type 
C1            C2   1.398       .  A
C1            C6   1.391   1_556  A
C1         C1724   1.496       .  S
C2            C3   1.396   1_465  A
C2         C1707   1.495   1_455  S
C3            C4   1.431       .  A
C3         C1744   1.509       .  S
C4            C5   1.427   1_546  A
C4         C1697   1.501   1_545  S
C5            C6   1.409   1_655  A
C5         C1737   1.503       .  S
C6         C1717   1.478   1_554  S
O7           C15   1.284       .  A
O7          Co27   2.079       .  S
O8           C16   1.329       .  A
O8          Co28   2.195       .  S
O9           C17   1.257       .  A
O9          Co29   1.987       .  S
O10          C18   1.260       .  A
O10         Co30   1.934       .  S
O11          C17   1.254       .  A
O11         Co28   1.933       .  S
O12          C18   1.289       .  A
O12         Co27   2.020       .  S
O13          C16   1.292       .  A
O13         Co30   1.990   1_655  S
O14          C15   1.307       .  A
O14         Co29   2.137   1_455  S
C15         C591   1.610       .  S
C16         C242   1.595       .  S
C17        C1687   1.470       .  S
C18        C1664   1.458       .  S
O19          C32   1.290       .  A
O19         Co27   2.086       .  S
O20          C33   1.315       .  A
O20         Co28   2.130       .  S
O21          C34   1.255       .  A
O21         Co29   1.937   1_455  S
O22          C35   1.260   1_455  A
O22         Co30   1.952       .  S
O23          C35   1.249       .  A
O23         Co28   1.953       .  S
O24          C34   1.281       .  A
O24         Co27   2.033       .  S
O25          C32   1.304       .  A
O25         Co30   2.143       .  S
O26          C33   1.307       .  A
O26         Co29   2.070       .  S
Co27         O31   2.039       .  S
Co28         O31   2.117   1_655  S
Co29         O31   2.006   1_655  S
Co30         O31   2.002       .  S
C32         C306   1.617       .  S
C33         C673   1.607       .  S
C34        C1747   1.468       .  S
C35        C1677   1.454   1_556  S
O36          C44   1.293       .  A
O36         Co56   2.115       .  S
O37          C45   1.284       .  A
O37         Co57   2.093       .  S
O38          C46   1.244       .  A
O38         Co58   1.919       .  S
O39          C47   1.264       .  A
O39         Co59   1.973       .  S
O40          C46   1.274       .  A
O40         Co57   1.982       .  S
O41          C47   1.255       .  A
O41         Co56   1.943       .  S
O42          C45   1.274       .  A
O42         Co59   2.039   1_565  S
O43          C44   1.288       .  A
O43         Co58   2.089   1_545  S
C44         C690   1.602       .  S
C45         C731   1.573       .  S
C46        C1634   1.429       .  S
C47        C1644   1.459       .  S
O48          C61   1.266       .  A
O48         Co56   2.021       .  S
O49          C62   1.283       .  A
O49         Co57   2.069       .  S
O50          C63   1.265   1_565  A
O50         Co58   1.962       .  S
O51          C64   1.271       .  A
O51         Co59   1.998   1_565  S
O52          C64   1.263       .  A
O52         Co57   1.966       .  S
O53          C63   1.256       .  A
O53         Co56   1.955       .  S
O54          C61   1.289       .  A
O54         Co59   2.086       .  S
O55          C62   1.286       .  A
O55         Co58   2.080       .  S
Co56         O60   2.092   1_545  S
Co57         O60   2.145       .  S
Co58         O60   2.103       .  S
Co59         O60   2.145   1_545  S
C61         C271   1.545       .  S
C62         C137   1.565       .  S
C63        C1734   1.449       .  S
C64        C1654   1.474       .  S
C65          C66   1.399       .  A
C65          C70   1.412   1_565  A
C65        C1584   1.480       .  S
C66          C67   1.393   1_565  A
C66        C1657   1.494       .  S
C67          C68   1.421   1_655  A
C67        C1617   1.478       .  S
C68          C69   1.403       .  A
C68        C1597   1.481       .  S
C69          C70   1.394   1_455  A
C69        C1604   1.489       .  S
C70        C1627   1.490   1_645  S
O71          C79   1.282       .  A
O71         Co91   1.965       .  S
O72          C80   1.310       .  A
O72         Co92   2.092       .  S
O73          C81   1.260       .  A
O73         Co93   1.961       .  S
O74          C82   1.252       .  A
O74         Co94   1.981       .  S
O75          C81   1.252       .  A
O75         Co92   1.942       .  S
O76          C82   1.250       .  A
O76         Co91   1.909       .  S
O77          C80   1.315       .  A
O77         Co94   2.103   1_655  S
O78          C79   1.325       .  A
O78         Co93   2.238   1_455  S
C79         C592   1.583       .  S
C80         C243   1.603       .  S
C81        C1574   1.476       .  S
C82        C1554   1.461       .  S
O83          C96   1.303       .  A
O83         Co91   2.110       .  S
O84          C97   1.301       .  A
O84         Co92   2.146       .  S
O85          C98   1.228       .  A
O85         Co93   1.920   1_455  S
O86          C99   1.256       .  A
O86         Co94   1.945   1_655  S
O87          C99   1.249       .  A
O87         Co92   1.968       .  S
O88          C98   1.269       .  A
O88         Co91   2.038       .  S
O89          C96   1.303       .  A
O89         Co94   2.105       .  S
O90          C97   1.272       .  A
O90         Co93   2.074       .  S
Co91         O95   2.050       .  S
Co92         O95   2.109   1_655  S
Co93         O95   2.109   1_655  S
Co94         O95   2.108       .  S
C96         C172   1.603       .  S
C97         C748   1.627       .  S
C98        C1624   1.512       .  S
C99        C1564   1.467       .  S
O100        C108   1.302       .  A
O100       Co120   2.144       .  S
O101        C109   1.302       .  A
O101       Co121   2.055       .  S
O102        C110   1.276       .  A
O102       Co122   1.988       .  S
O103        C111   1.261       .  A
O103       Co123   1.969       .  S
O104        C110   1.268       .  A
O104       Co121   1.958       .  S
O105        C111   1.262       .  A
O105       Co120   1.960       .  S
O106        C109   1.317       .  A
O106       Co123   2.170   1_556  S
O107        C108   1.275       .  A
O107       Co122   2.025   1_554  S
C108        C154   1.576       .  S
C109        C207   1.612       .  S
C110       C1527   1.477       .  S
C111       C1534   1.454       .  S
O112        C125   1.289       .  A
O112       Co120   1.994       .  S
O113        C126   1.298       .  A
O113       Co121   2.108       .  S
O114        C127   1.273       .  A
O114       Co122   1.994   1_554  S
O115        C128   1.264       .  A
O115       Co123   1.969   1_556  S
O116        C128   1.248       .  A
O116       Co121   1.933       .  S
O117        C127   1.268       .  A
O117       Co120   1.976       .  S
O118        C125   1.314       .  A
O118       Co123   2.146       .  S
O119        C126   1.279       .  A
O119       Co122   2.046       .  S
Co120       O124   2.001   1_554  S
Co121       O124   1.995       .  S
Co122       O124   2.016       .  S
Co123       O124   2.126   1_554  S
C125        C370   1.579       .  S
C126        C574   1.577       .  S
C127       C1727   1.463       .  S
C128       C1544   1.448       .  S
O129        C137   1.318       .  A
O129       Co149   2.169   1_655  S
O130        C138   1.287       .  A
O130       Co150   2.057   1_455  S
O131        C139   1.267       .  A
O131       Co151   1.966       .  S
O132        C140   1.270       .  A
O132       Co152   1.968       .  S
O133        C139   1.276       .  A
O133       Co150   1.993       .  S
O134        C140   1.250       .  A
O134       Co149   1.935       .  S
O135        C138   1.295       .  A
O135       Co152   2.109       .  S
O136        C137   1.280       .  A
O136       Co151   1.975       .  S
C138        C760   1.586       .  S
C139       C1504   1.439       .  S
C140       C1514   1.456       .  S
O141        C154   1.304       .  A
O141       Co149   2.071       .  S
O142        C155   1.274       .  A
O142       Co150   2.040       .  S
O143        C156   1.249       .  A
O143       Co151   1.938       .  S
O144        C157   1.256       .  A
O144       Co152   1.946       .  S
O145        C157   1.279       .  A
O145       Co150   2.004   1_455  S
O146        C156   1.263   1_455  A
O146       Co149   1.950       .  S
O147        C154   1.299       .  A
O147       Co152   2.084       .  S
O148        C155   1.274       .  A
O148       Co151   2.059       .  S
Co149       O153   2.070       .  S
Co150       O153   2.056   1_655  S
Co151       O153   1.945   1_655  S
Co152       O153   2.046       .  S
C155        C638   1.549       .  S
C156       C1714   1.459   1_554  S
C157       C1497   1.459       .  S
C158        C159   1.419       .  A
C158        C163   1.423       .  A
C158       C1464   1.493       .  S
C159        C160   1.404       .  A
C159       C1537   1.493       .  S
C160        C161   1.392       .  A
C160       C1517   1.492       .  S
C161        C162   1.398       .  A
C161       C1474   1.491       .  S
C162        C163   1.409       .  A
C162       C1484   1.500       .  S
C163       C1454   1.499       .  S
O164        C172   1.281       .  A
O164       Co184   2.099       .  S
O165        C173   1.297       .  A
O165       Co185   2.042       .  S
O166        C174   1.259       .  A
O166       Co186   1.963       .  S
O167        C175   1.254       .  A
O167       Co187   1.917       .  S
O168        C174   1.252       .  A
O168       Co185   1.985       .  S
O169        C175   1.278       .  A
O169       Co184   2.019       .  S
O170        C173   1.301       .  A
O170       Co187   2.129       .  S
O171        C172   1.285       .  A
O171       Co186   2.091       .  S
C173        C405   1.585       .  S
C174       C1444   1.467       .  S
C175       C1487   1.471       .  S
O176        C189   1.288       .  A
O176       Co184   2.101       .  S
O177        C190   1.300       .  A
O177       Co185   2.133       .  S
O178        C191   1.264       .  A
O178       Co186   1.960       .  S
O179        C192   1.264       .  A
O179       Co187   2.004       .  S
O180        C192   1.250       .  A
O180       Co185   1.937       .  S
O181        C191   1.272       .  A
O181       Co184   1.979       .  S
O182        C189   1.274       .  A
O182       Co187   2.055       .  S
O183        C190   1.276       .  A
O183       Co186   2.055       .  S
Co184       O188   2.143       .  S
Co185       O188   2.064       .  S
Co186       O188   2.110       .  S
Co187       O188   2.122       .  S
C189        C777   1.588       .  S
C190        C702   1.595       .  S
C191       C1434   1.455       .  S
C192       C1424   1.454       .  S
C193        C194   1.379       .  A
C193        C198   1.394       .  A
C193       C1404   1.446       .  S
C194        C195   1.403       .  A
C194       C1447   1.498       .  S
C195        C196   1.427       .  A
C195       C1557   1.518       .  S
C196        C197   1.436       .  A
C196       C1397   1.506       .  S
C197        C198   1.410       .  A
C197       C1524   1.512       .  S
C198       C1414   1.497       .  S
O199        C207   1.321       .  A
O199       Co219   2.207       .  S
O200        C208   1.286       .  A
O200       Co220   2.081       .  S
O201        C209   1.238       .  A
O201       Co221   1.895       .  S
O202        C210   1.253       .  A
O202       Co222   1.983       .  S
O203        C209   1.293       .  A
O203       Co220   2.064       .  S
O204        C210   1.245       .  A
O204       Co219   1.942       .  S
O205        C208   1.272       .  A
O205       Co222   2.033       .  S
O206        C207   1.271       .  A
O206       Co221   2.019       .  S
C208        C639   1.557       .  S
C209       C1364   1.459       .  S
C210       C1387   1.466       .  S
O211        C224   1.307       .  A
O211       Co219   2.159       .  S
O212        C225   1.272       .  A
O212       Co220   2.035       .  S
O213        C226   1.261       .  A
O213       Co221   1.946       .  S
O214        C227   1.246       .  A
O214       Co222   1.938       .  S
O215        C227   1.252       .  A
O215       Co220   1.957       .  S
O216        C226   1.256       .  A
O216       Co219   1.955       .  S
O217        C224   1.288       .  A
O217       Co222   2.058       .  S
O218        C225   1.274       .  A
O218       Co221   2.062       .  S
Co219       O223   2.050       .  S
Co220       O223   2.143       .  S
Co221       O223   2.011       .  S
Co222       O223   2.091       .  S
C224        C434   1.567       .  S
C225        C719   1.543       .  S
C226       C1417   1.462       .  S
C227       C1377   1.430       .  S
C228        C229   1.409       .  A
C228        C233   1.415       .  A
C228       C1324   1.487       .  S
C229        C230   1.403       .  A
C229       C1684   1.500       .  S
C230        C231   1.415       .  A
C230       C1354   1.511       .  S
C231        C232   1.420       .  A
C231       C1344   1.505       .  S
C232        C233   1.419       .  A
C232       C1334   1.494       .  S
C233       C1314   1.500       .  S
O234        C242   1.265       .  A
O234       Co254   2.014       .  S
O235        C243   1.290       .  A
O235       Co255   2.015       .  S
O236        C244   1.273       .  A
O236       Co256   2.003       .  S
O237        C245   1.276       .  A
O237       Co257   2.041       .  S
O238        C244   1.264       .  A
O238       Co255   1.936       .  S
O239        C245   1.240       .  A
O239       Co254   1.920       .  S
O240        C243   1.316       .  A
O240       Co257   2.175       .  S
O241        C242   1.301       .  A
O241       Co256   2.165       .  S
C244       C1284   1.478       .  S
C245       C1294   1.476       .  S
O246        C259   1.284       .  A
O246       Co254   2.051       .  S
O247        C260   1.302       .  A
O247       Co255   2.144       .  S
O248        C261   1.268       .  A
O248       Co256   1.950       .  S
O249        C262   1.262       .  A
O249       Co257   1.960       .  S
O250        C262   1.261       .  A
O250       Co255   1.984       .  S
O251        C261   1.263       .  A
O251       Co254   1.978       .  S
O252        C259   1.280       .  A
O252       Co257   2.097       .  S
O253        C260   1.291       .  A
O253       Co256   2.089       .  S
Co254       O258   2.048       .  S
Co255       O258   2.011       .  S
Co256       O258   2.109       .  S
Co257       O258   2.179       .  S
C259        C656   1.573       .  S
C260        C603   1.625       .  S
C261       C1357   1.478       .  S
C262       C1307   1.472       .  S
O263        C271   1.279       .  A
O263       Co283   2.085   1_655  S
O264        C272   1.277       .  A
O264       Co284   2.037   1_455  S
O265        C273   1.255       .  A
O265       Co285   1.948       .  S
O266        C274   1.276       .  A
O266       Co286   2.019       .  S
O267        C273   1.249       .  A
O267       Co284   1.961       .  S
O268        C274   1.248       .  A
O268       Co283   1.930       .  S
O269        C272   1.305       .  A
O269       Co286   2.133       .  S
O270        C271   1.278       .  A
O270       Co285   2.040       .  S
C272        C761   1.579       .  S
C273       C1264   1.458       .  S
C274       C1274   1.459       .  S
O275        C288   1.306       .  A
O275       Co283   2.143       .  S
O276        C289   1.307       .  A
O276       Co284   2.131       .  S
O277        C290   1.250       .  A
O277       Co285   2.020       .  S
O278        C291   1.270       .  A
O278       Co286   2.013       .  S
O279        C291   1.245   1_655  A
O279       Co284   1.931       .  S
O280        C290   1.229   1_455  A
O280       Co283   1.893       .  S
O281        C288   1.290       .  A
O281       Co286   2.020       .  S
O282        C289   1.297       .  A
O282       Co285   2.036       .  S
Co283       O287   2.126       .  S
Co284       O287   2.099   1_655  S
Co285       O287   2.145   1_655  S
Co286       O287   2.062       .  S
C288        C498   1.600       .  S
C289        C621   1.582       .  S
C290       C1614   1.497       .  S
C291       C1254   1.473       .  S
C292        C293   1.395       .  A
C292        C297   1.410       .  A
C292       C1204   1.457       .  S
C293        C294   1.401       .  A
C293       C1277   1.486       .  S
C294        C295   1.421       .  A
C294       C1217   1.514       .  S
C295        C296   1.400       .  A
C295       C1237   1.468       .  S
C296        C297   1.401       .  A
C296       C1224   1.488       .  S
C297       C1247   1.504       .  S
O298        C306   1.280       .  A
O298       Co318   1.973   1_556  S
O299        C307   1.314       .  A
O299       Co319   2.109   1_554  S
O300        C308   1.247       .  A
O300       Co320   1.921       .  S
O301        C309   1.268       .  A
O301       Co321   1.916       .  S
O302        C308   1.273       .  A
O302       Co319   1.998       .  S
O303        C309   1.262       .  A
O303       Co318   1.968       .  S
O304        C307   1.330       .  A
O304       Co321   2.219       .  S
O305        C306   1.328       .  A
O305       Co320   2.231       .  S
C307        C469   1.663       .  S
C308       C1197   1.452       .  S
C309       C1244   1.446       .  S
O310        C323   1.303       .  A
O310       Co318   2.123       .  S
O311        C324   1.313       .  A
O311       Co319   2.161       .  S
O312        C325   1.248       .  A
O312       Co320   1.933       .  S
O313        C326   1.257       .  A
O313       Co321   1.911       .  S
O314        C326   1.266       .  A
O314       Co319   1.964   1_554  S
O315        C325   1.266   1_554  A
O315       Co318   1.979       .  S
O316        C323   1.293       .  A
O316       Co321   2.067       .  S
O317        C324   1.289       .  A
O317       Co320   2.053       .  S
Co318       O322   2.005   1_554  S
Co319       O322   2.012       .  S
Co320       O322   2.098       .  S
Co321       O322   2.036   1_554  S
C323        C778   1.591       .  S
C324        C703   1.601       .  S
C325       C1177   1.444       .  S
C326       C1184   1.428       .  S
C327        C328   1.386       .  A
C327        C332   1.392       .  A
C327       C1194   1.443       .  S
C328        C329   1.399       .  A
C328       C1667   1.489       .  S
C329        C330   1.417       .  A
C329       C1144   1.514       .  S
C330        C331   1.428       .  A
C330       C1134   1.503       .  S
C331        C332   1.412       .  A
C331       C1164   1.501       .  S
C332       C1154   1.486       .  S
O333        C341   1.295       .  A
O333       Co353   2.114       .  S
O334        C342   1.306       .  A
O334       Co354   2.201       .  S
O335        C343   1.266       .  A
O335       Co355   2.022       .  S
O336        C344   1.256       .  A
O336       Co356   1.971       .  S
O337        C343   1.248       .  A
O337       Co354   1.949       .  S
O338        C344   1.273       .  A
O338       Co353   1.993       .  S
O339        C342   1.282       .  A
O339       Co356   2.068       .  S
O340        C341   1.277       .  A
O340       Co355   2.052       .  S
C341        C620   1.583       .  S
C342        C499   1.618       .  S
C343       C1124   1.466       .  S
C344       C1114   1.464       .  S
O345        C358   1.282       .  A
O345       Co353   2.083       .  S
O346        C359   1.319       .  A
O346       Co354   2.218       .  S
O347        C360   1.260       .  A
O347       Co355   1.936       .  S
O348        C361   1.260       .  A
O348       Co356   1.962       .  S
O349        C361   1.261       .  A
O349       Co354   1.958       .  S
O350        C360   1.272       .  A
O350       Co353   1.981       .  S
O351        C358   1.268       .  A
O351       Co356   2.013       .  S
O352        C359   1.277       .  A
O352       Co355   2.045       .  S
Co353       O357   2.109       .  S
Co354       O357   2.048       .  S
Co355       O357   2.078       .  S
Co356       O357   2.066       .  S
C358        C720   1.546       .  S
C359        C435   1.619       .  S
C360       C1337   1.460       .  S
C361       C1167   1.459       .  S
O362        C370   1.277       .  A
O362       Co382   2.069   1_565  S
O363        C371   1.313       .  A
O363       Co383   2.113   1_545  S
O364        C372   1.277       .  A
O364       Co384   2.007       .  S
O365        C373   1.242       .  A
O365       Co385   1.934       .  S
O366        C372   1.244       .  A
O366       Co383   1.932       .  S
O367        C373   1.248       .  A
O367       Co382   1.934       .  S
O368        C371   1.304       .  A
O368       Co385   2.085       .  S
O369        C370   1.276       .  A
O369       Co384   2.079       .  S
C371        C515   1.596       .  S
C372       C1467   1.444       .  S
C373       C1234   1.429       .  S
O374        C387   1.297       .  A
O374       Co382   2.090       .  S
O375        C388   1.308       .  A
O375       Co383   2.161       .  S
O376        C389   1.271       .  A
O376       Co384   1.980       .  S
O377        C390   1.246       .  A
O377       Co385   1.962       .  S
O378        C390   1.238   1_565  A
O378       Co383   1.952       .  S
O379        C389   1.273       .  A
O379       Co382   1.994   1_565  S
O380        C387   1.296       .  A
O380       Co385   2.131       .  S
O381        C388   1.278       .  A
O381       Co384   2.051       .  S
Co382       O386   2.142   1_545  S
Co383       O386   2.108       .  S
Co384       O386   2.135       .  S
Co385       O386   2.134   1_545  S
C387        C486   1.610       .  S
C388        C422   1.602       .  S
C389       C1094   1.477       .  S
C390       C1104   1.465       .  S
C391        C392   1.402   1_545  A
C391        C396   1.439       .  A
C391       C1127   1.469       .  S
C392        C393   1.399       .  A
C392       C1074   1.489       .  S
C393        C394   1.373       .  A
C393       C1054   1.497       .  S
C394        C395   1.373   1_565  A
C394       C1084   1.431       .  S
C395        C396   1.376       .  A
C395       C1107   1.467       .  S
C396       C1064   1.480       .  S
O397        C405   1.300       .  A
O397       Co417   2.123       .  S
O398        C406   1.296       .  A
O398       Co418   2.025       .  S
O399        C407   1.272       .  A
O399       Co419   1.955       .  S
O400        C408   1.237       .  A
O400       Co420   1.928       .  S
O401        C407   1.266       .  A
O401       Co418   1.962       .  S
O402        C408   1.254       .  A
O402       Co417   1.979       .  S
O403        C406   1.327       .  A
O403       Co420   2.210       .  S
O404        C405   1.275       .  A
O404       Co419   2.048       .  S
C406        C749   1.616       .  S
C407       C1037   1.451       .  S
C408       C1087   1.423       .  S
O409        C422   1.285       .  A
O409       Co417   2.016       .  S
O410        C423   1.300       .  A
O410       Co418   2.121       .  S
O411        C424   1.275       .  A
O411       Co419   2.003       .  S
O412        C425   1.228       .  A
O412       Co420   1.923       .  S
O413        C425   1.262       .  A
O413       Co418   1.936       .  S
O414        C424   1.250       .  A
O414       Co417   1.938       .  S
O415        C422   1.316       .  A
O415       Co420   2.223       .  S
O416        C423   1.281       .  A
O416       Co419   2.042       .  S
Co417       O421   2.015       .  S
Co418       O421   2.007       .  S
Co419       O421   2.044       .  S
Co420       O421   2.113       .  S
C423        C533   1.580       .  S
C424       C1457   1.462       .  S
C425       C1044   1.455       .  S
O426        C434   1.288       .  A
O426       Co446   1.984       .  S
O427        C435   1.311       .  A
O427       Co447   2.153       .  S
O428        C436   1.261       .  A
O428       Co448   1.967   1_545  S
O429        C437   1.296       .  A
O429       Co449   2.037   1_565  S
O430        C436   1.246       .  A
O430       Co447   1.949       .  S
O431        C437   1.241       .  A
O431       Co446   1.895       .  S
O432        C435   1.288       .  A
O432       Co449   2.083       .  S
O433        C434   1.316       .  A
O433       Co448   2.157       .  S
C436       C1024   1.445       .  S
C437       C1077   1.472       .  S
O438        C451   1.296       .  A
O438       Co446   2.118       .  S
O439        C452   1.293       .  A
O439       Co447   1.999       .  S
O440        C453   1.269       .  A
O440       Co448   2.015       .  S
O441        C454   1.284       .  A
O441       Co449   2.028       .  S
O442        C454   1.250       .  A
O442       Co447   1.933       .  S
O443        C453   1.248       .  A
O443       Co446   1.898       .  S
O444        C451   1.273       .  A
O444       Co449   2.042   1_565  S
O445        C452   1.322       .  A
O445       Co448   2.168   1_545  S
Co446       O450   1.986   1_565  S
Co447       O450   1.962       .  S
Co448       O450   2.108   1_565  S
Co449       O450   2.018       .  S
C451        C732   1.579       .  S
C452        C691   1.575       .  S
C453       C1014   1.467       .  S
C454       C1317   1.466       .  S
C455        C456   1.386       .  A
C455        C460   1.416       .  A
C455       C1027   1.516       .  S
C456        C457   1.409   1_545  A
C456       C1384   1.477   1_545  S
C457        C458   1.415       .  A
C457       C1547   1.483       .  S
C458        C459   1.407   1_566  A
C458       C1097   1.510   1_556  S
C459        C460   1.433   1_554  A
C459       C1004   1.484       .  S
C460        C997   1.493       .  S
O461        C469   1.289       .  A
O461       Co481   2.112       .  S
O462        C470   1.275       .  A
O462       Co482   2.036       .  S
O463        C471   1.244       .  A
O463       Co483   1.933       .  S
O464        C472   1.249       .  A
O464       Co484   1.923       .  S
O465        C471   1.252       .  A
O465       Co482   1.967       .  S
O466        C472   1.261       .  A
O466       Co481   1.991       .  S
O467        C470   1.307       .  A
O467       Co484   2.146       .  S
O468        C469   1.304       .  A
O468       Co483   2.183       .  S
C470        C674   1.592       .  S
C471        C977   1.455       .  S
C472       C1007   1.479       .  S
O473        C486   1.330       .  A
O473       Co481   2.217       .  S
O474        C487   1.285       .  A
O474       Co482   2.003       .  S
O475        C488   1.228       .  A
O475       Co483   1.897       .  S
O476        C489   1.245       .  A
O476       Co484   1.958       .  S
O477        C489   1.253       .  A
O477       Co482   1.950       .  S
O478        C488   1.274       .  A
O478       Co481   2.036       .  S
O479        C486   1.285       .  A
O479       Co484   1.998       .  S
O480        C487   1.322       .  A
O480       Co483   2.209       .  S
Co481       O485   2.261       .  S
Co482       O485   2.092       .  S
Co483       O485   2.154       .  S
Co484       O485   2.027       .  S
C487        C534   1.608       .  S
C488       C1227   1.458       .  S
C489        C984   1.450       .  S
O490        C498   1.274       .  A
O490       Co510   2.070       .  S
O491        C499   1.288       .  A
O491       Co511   2.084       .  S
O492        C500   1.275       .  A
O492       Co512   1.991       .  S
O493        C501   1.242       .  A
O493       Co513   1.961       .  S
O494        C500   1.257       .  A
O494       Co511   1.936       .  S
O495        C501   1.255       .  A
O495       Co510   1.933       .  S
O496        C499   1.299       .  A
O496       Co513   2.161       .  S
O497        C498   1.285       .  A
O497       Co512   2.109       .  S
C500       C1137   1.473       .  S
C501       C1214   1.441       .  S
O502        C515   1.292       .  A
O502       Co510   2.084       .  S
O503        C516   1.276       .  A
O503       Co511   2.077       .  S
O504        C517   1.248       .  A
O504       Co512   1.956       .  S
O505        C518   1.239       .  A
O505       Co513   1.919       .  S
O506        C518   1.260       .  A
O506       Co511   1.997       .  S
O507        C517   1.259       .  A
O507       Co510   1.996       .  S
O508        C515   1.300       .  A
O508       Co513   2.128       .  S
O509        C516   1.280       .  A
O509       Co512   2.078       .  S
Co510       O514   2.185       .  S
Co511       O514   2.121       .  S
Co512       O514   2.132       .  S
Co513       O514   2.098       .  S
C516        C575   1.584       .  S
C517       C1594   1.458       .  S
C518       C1067   1.445       .  S
C519        C520   1.409       .  A
C519        C524   1.405       .  A
C519       C1637   1.509       .  S
C520        C521   1.386       .  A
C520       C1507   1.450       .  S
C521        C522   1.414       .  A
C521        C957   1.519       .  S
C522        C523   1.415       .  A
C522        C964   1.500       .  S
C523        C524   1.439       .  A
C523       C1047   1.516       .  S
C524        C944   1.516       .  S
O525        C533   1.290       .  A
O525       Co545   2.099       .  S
O526        C534   1.273       .  A
O526       Co546   2.057       .  S
O527        C535   1.266       .  A
O527       Co547   2.007       .  S
O528        C536   1.254       .  A
O528       Co548   1.973       .  S
O529        C535   1.249       .  A
O529       Co546   1.942       .  S
O530        C536   1.259       .  A
O530       Co545   1.951       .  S
O531        C534   1.300       .  A
O531       Co548   2.152       .  S
O532        C533   1.276       .  A
O532       Co547   2.059       .  S
C535        C917   1.434       .  S
C536        C924   1.479       .  S
O537        C550   1.319       .  A
O537       Co545   2.183       .  S
O538        C551   1.277       .  A
O538       Co546   2.123       .  S
O539        C552   1.254       .  A
O539       Co547   1.933       .  S
O540        C553   1.254       .  A
O540       Co548   1.931       .  S
O541        C553   1.282       .  A
O541       Co546   2.031       .  S
O542        C552   1.275       .  A
O542       Co545   2.020       .  S
O543        C550   1.281       .  A
O543       Co548   1.961       .  S
O544        C551   1.269       .  A
O544       Co547   2.025       .  S
Co545       O549   2.128       .  S
Co546       O549   2.065       .  S
Co547       O549   2.036       .  S
Co548       O549   1.984       .  S
C550        C604   1.571       .  S
C551        C655   1.567       .  S
C552        C967   1.480       .  S
C553        C937   1.478       .  S
C554        C555   1.414       .  A
C554        C559   1.421       .  A
C554       C1267   1.508       .  S
C555        C556   1.391       .  A
C555       C1647   1.471       .  S
C556        C557   1.397       .  A
C556        C897   1.479       .  S
C557        C558   1.404       .  A
C557        C987   1.492       .  S
C558        C559   1.427       .  A
C558        C934   1.522       .  S
C559        C904   1.506       .  S
C560        C561   1.391       .  A
C560        C565   1.399       .  A
C560        C887   1.465       .  S
C561        C562   1.404       .  A
C561       C1304   1.505       .  S
C562        C563   1.426       .  A
C562       C1577   1.508       .  S
C563        C564   1.432       .  A
C563        C874   1.517       .  S
C564        C565   1.413       .  A
C564       C1017   1.521       .  S
C565       C1374   1.460       .  S
O566        C574   1.310       .  A
O566       Co586   2.160   1_565  S
O567        C575   1.309       .  A
O567       Co587   2.126   1_545  S
O568        C576   1.262       .  A
O568       Co588   1.931       .  S
O569        C577   1.257       .  A
O569       Co589   1.939       .  S
O570        C576   1.275       .  A
O570       Co587   1.992       .  S
O571        C577   1.273       .  A
O571       Co586   2.010       .  S
O572        C575   1.303       .  A
O572       Co589   2.050       .  S
O573        C574   1.273       .  A
O573       Co588   1.980       .  S
C576       C1394   1.477       .  S
C577       C1147   1.476       .  S
O578        C591   1.274       .  A
O578       Co586   2.061       .  S
O579        C592   1.280       .  A
O579       Co587   2.052       .  S
O580        C593   1.255       .  A
O580       Co588   1.958       .  S
O581        C594   1.252       .  A
O581       Co589   1.967       .  S
O582        C594   1.263       .  A
O582       Co587   1.959   1_545  S
O583        C593   1.267       .  A
O583       Co586   1.938   1_565  S
O584        C591   1.306       .  A
O584       Co589   2.141       .  S
O585        C592   1.290       .  A
O585       Co588   2.100       .  S
Co586       O590   2.107       .  S
Co587       O590   2.033   1_565  S
Co588       O590   2.016   1_565  S
Co589       O590   2.004       .  S
C593       C1704   1.465       .  S
C594       C1607   1.453       .  S
O595        C603   1.302       .  A
O595       Co615   2.127       .  S
O596        C604   1.281       .  A
O596       Co616   1.974       .  S
O597        C605   1.282       .  A
O597       Co617   1.974       .  S
O598        C606   1.257       .  A
O598       Co618   1.912       .  S
O599        C605   1.261       .  A
O599       Co616   1.943       .  S
O600        C606   1.261       .  A
O600       Co615   1.985       .  S
O601        C604   1.315       .  A
O601       Co618   2.167       .  S
O602        C603   1.298       .  A
O602       Co617   2.110       .  S
C605        C864   1.456       .  S
C606        C854   1.461       .  S
O607        C620   1.295       .  A
O607       Co615   2.017       .  S
O608        C621   1.288       .  A
O608       Co616   2.102       .  S
O609        C622   1.269       .  A
O609       Co617   1.961       .  S
O610        C623   1.254       .  A
O610       Co618   1.956       .  S
O611        C623   1.259       .  A
O611       Co616   1.946       .  S
O612        C622   1.271       .  A
O612       Co615   1.960       .  S
O613        C620   1.309       .  A
O613       Co618   2.143       .  S
O614        C621   1.279       .  A
O614       Co617   2.069       .  S
Co615       O619   1.980       .  S
Co616       O619   1.997       .  S
Co617       O619   2.017       .  S
Co618       O619   2.121       .  S
C622       C1347   1.471       .  S
C623        C907   1.458       .  S
C624        C625   1.422       .  A
C624        C629   1.423       .  A
C624        C867   1.500       .  S
C625        C626   1.418       .  A
C625       C1287   1.518       .  S
C626        C627   1.391   1_655  A
C626       C1567   1.515       .  S
C627        C628   1.394       .  A
C627       C1437   1.475       .  S
C628        C629   1.410   1_455  A
C628        C847   1.462       .  S
C629       C1257   1.517       .  S
O630        C638   1.259       .  A
O630       Co650   2.015       .  S
O631        C639   1.270       .  A
O631       Co651   1.994       .  S
O632        C640   1.266       .  A
O632       Co652   2.001       .  S
O633        C641   1.226       .  A
O633       Co653   1.920       .  S
O634        C640   1.254       .  A
O634       Co651   1.951       .  S
O635        C641   1.259       .  A
O635       Co650   1.987       .  S
O636        C639   1.299       .  A
O636       Co653   2.163   1_556  S
O637        C638   1.284       .  A
O637       Co652   2.095   1_554  S
C640        C884   1.457       .  S
C641        C954   1.440       .  S
O642        C655   1.256       .  A
O642       Co650   1.981       .  S
O643        C656   1.291       .  A
O643       Co651   2.108       .  S
O644        C657   1.279       .  A
O644       Co652   2.001   1_554  S
O645        C658   1.234   1_554  A
O645       Co653   1.932       .  S
O646        C658   1.248       .  A
O646       Co651   1.978       .  S
O647        C657   1.248       .  A
O647       Co650   1.944       .  S
O648        C655   1.307       .  A
O648       Co653   2.170       .  S
O649        C656   1.268       .  A
O649       Co652   2.044       .  S
Co650       O654   2.087       .  S
Co651       O654   2.068   1_556  S
Co652       O654   2.126   1_556  S
Co653       O654   2.144       .  S
C657        C824   1.455       .  S
C658        C837   1.491       .  S
C659        C660   1.413   1_554  A
C659        C664   1.395       .  A
C659        C914   1.466       .  S
C660        C661   1.415       .  A
C660        C834   1.484       .  S
C661        C662   1.389       .  A
C661       C1367   1.484       .  S
C662        C663   1.371   1_556  A
C662        C817   1.460       .  S
C663        C664   1.359       .  A
C663       C1187   1.430       .  S
C664        C974   1.472       .  S
O665        C673   1.318       .  A
O665       Co685   2.122   1_556  S
O666        C674   1.293       .  A
O666       Co686   2.075   1_554  S
O667        C675   1.261       .  A
O667       Co687   1.939       .  S
O668        C676   1.290       .  A
O668       Co688   2.024       .  S
O669        C675   1.274       .  A
O669       Co686   1.982       .  S
O670        C676   1.262       .  A
O670       Co685   1.938       .  S
O671        C674   1.279       .  A
O671       Co688   2.107       .  S
O672        C673   1.309       .  A
O672       Co687   2.086       .  S
C675       C1327   1.466       .  S
C676        C894   1.461       .  S
O677        C690   1.300       .  A
O677       Co685   2.135       .  S
O678        C691   1.273       .  A
O678       Co686   2.060       .  S
O679        C692   1.245       .  A
O679       Co687   1.949       .  S
O680        C693   1.257       .  A
O680       Co688   2.034       .  S
O681        C693   1.245       .  A
O681       Co686   1.877   1_554  S
O682        C692   1.259   1_554  A
O682       Co685   1.975       .  S
O683        C690   1.283       .  A
O683       Co688   2.063       .  S
O684        C691   1.287       .  A
O684       Co687   2.092       .  S
Co685       O689   2.116       .  S
Co686       O689   2.122   1_556  S
Co687       O689   2.077   1_556  S
Co688       O689   2.169       .  S
C692       C1694   1.457   1_545  S
C693        C994   1.469       .  S
O694        C702   1.296       .  A
O694       Co714   2.188       .  S
O695        C703   1.297       .  A
O695       Co715   2.051       .  S
O696        C704   1.265       .  A
O696       Co716   1.945       .  S
O697        C705   1.269       .  A
O697       Co717   2.000       .  S
O698        C704   1.262       .  A
O698       Co715   1.972       .  S
O699        C705   1.249       .  A
O699       Co714   1.941       .  S
O700        C703   1.311       .  A
O700       Co717   2.145       .  S
O701        C702   1.284       .  A
O701       Co716   2.046       .  S
C704       C1157   1.453       .  S
C705       C1407   1.457       .  S
O706        C719   1.289       .  A
O706       Co714   2.042       .  S
O707        C720   1.288       .  A
O707       Co715   2.110       .  S
O708        C721   1.225       .  A
O708       Co716   1.827       .  S
O709        C722   1.274       .  A
O709       Co717   2.010       .  S
O710        C722   1.243       .  A
O710       Co715   1.921       .  S
O711        C721   1.238       .  A
O711       Co714   2.038       .  S
O712        C719   1.290       .  A
O712       Co717   2.069       .  S
O713        C720   1.250       .  A
O713       Co716   2.009       .  S
Co714       O718   2.243       .  S
Co715       O718   2.048       .  S
Co716       O718   2.065       .  S
Co717       O718   2.105       .  S
C721        C804   1.437       .  S
C722        C814   1.445       .  S
O723        C731   1.286       .  A
O723       Co743   2.096       .  S
O724        C732   1.286       .  A
O724       Co744   2.081       .  S
O725        C733   1.272       .  A
O725       Co745   2.013       .  S
O726        C734   1.270       .  A
O726       Co746   1.994       .  S
O727        C733   1.256       .  A
O727       Co744   1.946       .  S
O728        C734   1.262       .  A
O728       Co743   1.958       .  S
O729        C732   1.279       .  A
O729       Co746   2.075       .  S
O730        C731   1.272       .  A
O730       Co745   2.054       .  S
C733       C1057   1.468       .  S
C734       C1587   1.466       .  S
O735        C748   1.309       .  A
O735       Co743   2.176       .  S
O736        C749   1.306       .  A
O736       Co744   2.173       .  S
O737        C750   1.254       .  A
O737       Co745   1.914       .  S
O738        C751   1.254       .  A
O738       Co746   1.932       .  S
O739        C751   1.271       .  A
O739       Co744   2.004       .  S
O740        C750   1.276       .  A
O740       Co743   2.024       .  S
O741        C748   1.276       .  A
O741       Co746   2.061       .  S
O742        C749   1.275       .  A
O742       Co745   2.043       .  S
Co743       O747   2.145       .  S
Co744       O747   2.143       .  S
Co745       O747   2.046       .  S
Co746       O747   2.036       .  S
C750        C947   1.473       .  S
C751        C877   1.471       .  S
O752        C760   1.269       .  A
O752       Co772   2.029       .  S
O753        C761   1.270       .  A
O753       Co773   2.057       .  S
O754        C762   1.265       .  A
O754       Co774   1.981       .  S
O755        C763   1.238       .  A
O755       Co775   1.873       .  S
O756        C762   1.248       .  A
O756       Co773   1.943       .  S
O757        C763   1.245       .  A
O757       Co772   2.029       .  S
O758        C761   1.292       .  A
O758       Co775   2.108       .  S
O759        C760   1.294       .  A
O759       Co774   2.141       .  S
C762        C794   1.452   1_455  S
C763        C844   1.449       .  S
O764        C777   1.281       .  A
O764       Co772   2.097       .  S
O765        C778   1.306       .  A
O765       Co773   2.164       .  S
O766        C779   1.248       .  A
O766       Co774   1.909       .  S
O767        C780   1.257       .  A
O767       Co775   1.923       .  S
O768        C780   1.249       .  A
O768       Co773   1.936       .  S
O769        C779   1.291       .  A
O769       Co772   2.028       .  S
O770        C777   1.286       .  A
O770       Co775   2.077       .  S
O771        C778   1.284       .  A
O771       Co774   2.008       .  S
Co772       O776   2.175       .  S
Co773       O776   2.114       .  S
Co774       O776   2.064       .  S
Co775       O776   2.171       .  S
C779       C1477   1.456       .  S
C780       C1207   1.421       .  S
C781        C782   1.401       .  A
C781        C786   1.398       .  A
C781       C1117   1.484       .  S
C782        C783   1.418       .  A
C782        C807   1.458       .  S
C783        C784   1.412       .  A
C783       C1427   1.516       .  S
C784        C785   1.425       .  A
C784       C1034   1.515       .  S
C785        C786   1.413       .  A
C785        C927   1.512       .  S
C786        C857   1.503       .  S
C787        C788   1.430       .  A
C787        C792   1.397   1_556  A
C787       C1297   1.514       .  S
C788        C789   1.428   1_656  A
C788       C1674   1.503       .  S
C789        C790   1.407   1_455  A
C789       C1174   1.500       .  S
C790        C791   1.394       .  A
C790        C797   1.480       .  S
C791        C792   1.395       .  A
C791       C1494   1.493       .  S
C792        C827   1.486       .  S
C793        C794   1.389       .  A
C793        C798   1.389       .  A
C793        F800   1.358       .  S
C794        C795   1.399       .  A
C795        C796   1.393       .  A
C795        F802   1.357       .  S
C796        C797   1.407       .  A
C796        F801   1.347       .  S
C797        C798   1.417       .  A
C798        F799   1.343       .  S
C803        C804   1.388       .  A
C803        C808   1.383       .  A
C803        F810   1.359       .  S
C804        C805   1.404       .  A
C805        C806   1.364       .  A
C805        F812   1.353       .  S
C806        C807   1.378       .  A
C806        F811   1.354       .  S
C807        C808   1.424       .  A
C808        F809   1.345       .  S
C813        C814   1.390       .  A
C813        C818   1.390       .  A
C813        F820   1.356       .  S
C814        C815   1.402       .  A
C815        C816   1.389       .  A
C815        F822   1.354       .  S
C816        C817   1.397       .  A
C816        F821   1.353       .  S
C817        C818   1.409       .  A
C818        F819   1.346       .  S
C823        C824   1.388       .  A
C823        C828   1.392       .  A
C823        F830   1.359       .  S
C824        C825   1.398       .  A
C825        C826   1.397   1_554  A
C825        F832   1.356   1_554  S
C826        C827   1.414   1_556  A
C826        F831   1.356       .  S
C827        C828   1.420       .  A
C828        F829   1.341       .  S
C833        C834   1.409       .  A
C833        C838   1.411       .  A
C833        F840   1.357       .  S
C834        C835   1.385       .  A
C835        C836   1.391       .  A
C835        F842   1.355   1_556  S
C836        C837   1.429       .  A
C836        F841   1.355   1_556  S
C837        C838   1.406       .  A
C838        F839   1.357       .  S
C843        C844   1.409       .  A
C843        C848   1.367       .  A
C843        F850   1.335       .  S
C844        C845   1.388       .  A
C845        C846   1.386   1_455  A
C845        F852   1.358   1_455  S
C846        C847   1.417   1_655  A
C846        F851   1.345       .  S
C847        C848   1.383       .  A
C848        F849   1.357       .  S
C853        C854   1.397       .  A
C853        C858   1.399       .  A
C853        F860   1.359       .  S
C854        C855   1.401       .  A
C855        C856   1.403       .  A
C855        F862   1.357       .  S
C856        C857   1.415       .  A
C856        F861   1.352       .  S
C857        C858   1.427       .  A
C858        F859   1.357       .  S
C863        C864   1.397       .  A
C863        C868   1.401       .  A
C863        F870   1.358       .  S
C864        C865   1.395       .  A
C865        C866   1.401       .  A
C865        F872   1.357       .  S
C866        C867   1.428       .  A
C866        F871   1.357       .  S
C867        C868   1.419       .  A
C868        F869   1.355       .  S
C873        C874   1.424       .  A
C873        C878   1.405       .  A
C873        F880   1.357       .  S
C874        C875   1.425       .  A
C875        C876   1.399       .  A
C875        F882   1.351       .  S
C876        C877   1.398       .  A
C876        F881   1.357       .  S
C877        C878   1.388       .  A
C878        F879   1.351       .  S
C883        C884   1.403       .  A
C883        C888   1.352       .  A
C883        F890   1.327       .  S
C884        C885   1.394       .  A
C885        C886   1.399       .  A
C885        F892   1.357       .  S
C886        C887   1.426       .  A
C886        F891   1.347       .  S
C887        C888   1.368       .  A
C888        F889   1.347       .  S
C893        C894   1.396       .  A
C893        C898   1.393       .  A
C893        F900   1.353       .  S
C894        C895   1.385       .  A
C895        C896   1.389       .  A
C895        F902   1.357       .  S
C896        C897   1.422       .  A
C896        F901   1.343       .  S
C897        C898   1.400       .  A
C898        F899   1.353       .  S
C903        C904   1.422       .  A
C903        C908   1.399       .  A
C903        F910   1.346       .  S
C904        C905   1.429       .  A
C905        C906   1.403       .  A
C905        F912   1.354       .  S
C906        C907   1.402       .  A
C906        F911   1.358       .  S
C907        C908   1.392       .  A
C908        F909   1.358       .  S
C913        C914   1.414       .  A
C913        C918   1.395       .  A
C913        F920   1.345       .  S
C914        C915   1.382       .  A
C915        C916   1.348       .  A
C915        F922   1.353       .  S
C916        C917   1.406       .  A
C916        F921   1.356       .  S
C917        C918   1.392       .  A
C918        F919   1.357       .  S
C923        C924   1.398       .  A
C923        C928   1.396       .  A
C923        F930   1.355       .  S
C924        C925   1.396       .  A
C925        C926   1.402       .  A
C925        F932   1.356       .  S
C926        C927   1.431       .  A
C926        F931   1.345       .  S
C927        C928   1.429       .  A
C928        F929   1.356       .  S
C933        C934   1.426       .  A
C933        C938   1.392       .  A
C933        F940   1.351       .  S
C934        C935   1.413       .  A
C935        C936   1.406       .  A
C935        F942   1.349       .  S
C936        C937   1.409       .  A
C936        F941   1.358       .  S
C937        C938   1.388       .  A
C938        F939   1.358       .  S
C943        C944   1.412       .  A
C943        C948   1.402       .  A
C943        F950   1.349       .  S
C944        C945   1.441       .  A
C945        C946   1.395       .  A
C945        F952   1.356       .  S
C946        C947   1.388       .  A
C946        F951   1.358       .  S
C947        C948   1.405       .  A
C948        F949   1.356       .  S
C953        C954   1.382       .  A
C953        C958   1.385       .  A
C953        F960   1.357       .  S
C954        C955   1.400       .  A
C955        C956   1.394       .  A
C955        F962   1.353       .  S
C956        C957   1.401       .  A
C956        F961   1.338       .  S
C957        C958   1.419       .  A
C958        F959   1.346       .  S
C963        C964   1.418       .  A
C963        C968   1.398       .  A
C963        F970   1.354       .  S
C964        C965   1.421       .  A
C965        C966   1.401       .  A
C965        F972   1.354       .  S
C966        C967   1.403       .  A
C966        F971   1.358       .  S
C967        C968   1.395       .  A
C968        F969   1.357       .  S
C973        C974   1.391       .  A
C973        C978   1.372       .  A
C973        F980   1.358       .  S
C974        C975   1.409       .  A
C975        C976   1.396       .  A
C975        F982   1.356   1_554  S
C976        C977   1.397       .  A
C976        F981   1.357   1_554  S
C977        C978   1.416       .  A
C978        F979   1.355       .  S
C983        C984   1.398       .  A
C983        C988   1.396       .  A
C983        F990   1.358       .  S
C984        C985   1.399       .  A
C985        C986   1.394       .  A
C985        F992   1.358       .  S
C986        C987   1.406       .  A
C986        F991   1.348       .  S
C987        C988   1.415       .  A
C988        F989   1.353       .  S
C993        C994   1.382       .  A
C993        C998   1.384       .  A
C993       F1000   1.358   1_545  S
C994        C995   1.419       .  A
C995        C996   1.384       .  A
C995       F1002   1.339       .  S
C996        C997   1.384   1_554  A
C996       F1001   1.348       .  S
C997        C998   1.412   1_556  A
C998        F999   1.325   1_545  S
C1003      C1004   1.390       .  A
C1003      C1008   1.393       .  A
C1003      F1010   1.356       .  S
C1004      C1005   1.402       .  A
C1005      C1006   1.403       .  A
C1005      F1012   1.357       .  S
C1006      C1007   1.411       .  A
C1006      F1011   1.357       .  S
C1007      C1008   1.425       .  A
C1008      F1009   1.357       .  S
C1013      C1014   1.412       .  A
C1013      C1018   1.408       .  A
C1013      F1020   1.357       .  S
C1014      C1015   1.385       .  A
C1015      C1016   1.397       .  A
C1015      F1022   1.358       .  S
C1016      C1017   1.427       .  A
C1016      F1021   1.336       .  S
C1017      C1018   1.412       .  A
C1018      F1019   1.351       .  S
C1023      C1024   1.399       .  A
C1023      C1028   1.388       .  A
C1023      F1030   1.357       .  S
C1024      C1025   1.403       .  A
C1025      C1026   1.407       .  A
C1025      F1032   1.357       .  S
C1026      C1027   1.420       .  A
C1026      F1031   1.357       .  S
C1027      C1028   1.397       .  A
C1028      F1029   1.355       .  S
C1033      C1034   1.433       .  A
C1033      C1038   1.398       .  A
C1033      F1040   1.355       .  S
C1034      C1035   1.410       .  A
C1035      C1036   1.401       .  A
C1035      F1042   1.353       .  S
C1036      C1037   1.401       .  A
C1036      F1041   1.357       .  S
C1037      C1038   1.393       .  A
C1038      F1039   1.358       .  S
C1043      C1044   1.386       .  A
C1043      C1048   1.396       .  A
C1043      F1050   1.358       .  S
C1044      C1045   1.399       .  A
C1045      C1046   1.407       .  A
C1045      F1052   1.357       .  S
C1046      C1047   1.418       .  A
C1046      F1051   1.343       .  S
C1047      C1048   1.431       .  A
C1048      F1049   1.345       .  S
C1053      C1054   1.407       .  A
C1053      C1058   1.401       .  A
C1053      F1060   1.353       .  S
C1054      C1055   1.421   1_565  A
C1055      C1056   1.406       .  A
C1055      F1062   1.347       .  S
C1056      C1057   1.405   1_545  A
C1056      F1061   1.357       .  S
C1057      C1058   1.396       .  A
C1058      F1059   1.357       .  S
C1063      C1064   1.428       .  A
C1063      C1068   1.382       .  A
C1063      F1070   1.344   1_545  S
C1064      C1065   1.393       .  A
C1065      C1066   1.378       .  A
C1065      F1072   1.360       .  S
C1066      C1067   1.412       .  A
C1066      F1071   1.353       .  S
C1067      C1068   1.376       .  A
C1068      F1069   1.359       .  S
C1073      C1074   1.439       .  A
C1073      C1078   1.382       .  A
C1073      F1080   1.327       .  S
C1074      C1075   1.407       .  A
C1075      C1076   1.405       .  A
C1075      F1082   1.356       .  S
C1076      C1077   1.404       .  A
C1076      F1081   1.350       .  S
C1077      C1078   1.367       .  A
C1078      F1079   1.358       .  S
C1083      C1084   1.375       .  A
C1083      C1088   1.346       .  A
C1083      F1090   1.360       .  S
C1084      C1085   1.415       .  A
C1085      C1086   1.384       .  A
C1085      F1092   1.346       .  S
C1086      C1087   1.384       .  A
C1086      F1091   1.358       .  S
C1087      C1088   1.411       .  A
C1088      F1089   1.345       .  S
C1093      C1094   1.392       .  A
C1093      C1098   1.402       .  A
C1093      F1100   1.356       .  S
C1094      C1095   1.407       .  A
C1095      C1096   1.407       .  A
C1095      F1102   1.348       .  S
C1096      C1097   1.397       .  A
C1096      F1101   1.351       .  S
C1097      C1098   1.419       .  A
C1098      F1099   1.353       .  S
C1103      C1104   1.421   1_565  A
C1103      C1108   1.374   1_565  A
C1103      F1110   1.356       .  S
C1104      C1105   1.399       .  A
C1105      C1106   1.400       .  A
C1105      F1112   1.357       .  S
C1106      C1107   1.409       .  A
C1106      F1111   1.355       .  S
C1107      C1108   1.388       .  A
C1108      F1109   1.358   1_545  S
C1113      C1114   1.404       .  A
C1113      C1118   1.398       .  A
C1113      F1120   1.356       .  S
C1114      C1115   1.399       .  A
C1115      C1116   1.395       .  A
C1115      F1122   1.357       .  S
C1116      C1117   1.411       .  A
C1116      F1121   1.354       .  S
C1117      C1118   1.400       .  A
C1118      F1119   1.350       .  S
C1123      C1124   1.410       .  A
C1123      C1128   1.360       .  A
C1123      F1130   1.330       .  S
C1124      C1125   1.407       .  A
C1125      C1126   1.411       .  A
C1125      F1132   1.356       .  S
C1126      C1127   1.414       .  A
C1126      F1131   1.356       .  S
C1127      C1128   1.368       .  A
C1128      F1129   1.354       .  S
C1133      C1134   1.422       .  A
C1133      C1138   1.393       .  A
C1133      F1140   1.351       .  S
C1134      C1135   1.420       .  A
C1135      C1136   1.400       .  A
C1135      F1142   1.358       .  S
C1136      C1137   1.402       .  A
C1136      F1141   1.358       .  S
C1137      C1138   1.393       .  A
C1138      F1139   1.358       .  S
C1143      C1144   1.417       .  A
C1143      C1148   1.404       .  A
C1143      F1150   1.351       .  S
C1144      C1145   1.428       .  A
C1145      C1146   1.397       .  A
C1145      F1152   1.354       .  S
C1146      C1147   1.391       .  A
C1146      F1151   1.358       .  S
C1147      C1148   1.404       .  A
C1148      F1149   1.357       .  S
C1153      C1154   1.409       .  A
C1153      C1158   1.385       .  A
C1153      F1160   1.350       .  S
C1154      C1155   1.411       .  A
C1155      C1156   1.382       .  A
C1155      F1162   1.336       .  S
C1156      C1157   1.392       .  A
C1156      F1161   1.360       .  S
C1157      C1158   1.398       .  A
C1158      F1159   1.355       .  S
C1163      C1164   1.424       .  A
C1163      C1168   1.396       .  A
C1163      F1170   1.349       .  S
C1164      C1165   1.410       .  A
C1165      C1166   1.387       .  A
C1165      F1172   1.352       .  S
C1166      C1167   1.395       .  A
C1166      F1171   1.358       .  S
C1167      C1168   1.401       .  A
C1168      F1169   1.359       .  S
C1173      C1174   1.419       .  A
C1173      C1178   1.400       .  A
C1173      F1180   1.354       .  S
C1174      C1175   1.417   1_554  A
C1175      C1176   1.382       .  A
C1175      F1182   1.340       .  S
C1176      C1177   1.384       .  A
C1176      F1181   1.361       .  S
C1177      C1178   1.399   1_556  A
C1178      F1179   1.356       .  S
C1183      C1184   1.393       .  A
C1183      C1188   1.384       .  A
C1183      F1190   1.359       .  S
C1184      C1185   1.418       .  A
C1185      C1186   1.354       .  A
C1185      F1192   1.346       .  S
C1186      C1187   1.368       .  A
C1186      F1191   1.359   1_554  S
C1187      C1188   1.407       .  A
C1188      F1189   1.352       .  S
C1193      C1194   1.374       .  A
C1193      C1198   1.360       .  A
C1193      F1200   1.356       .  S
C1194      C1195   1.416       .  A
C1195      C1196   1.387       .  A
C1195      F1202   1.355       .  S
C1196      C1197   1.393       .  A
C1196      F1201   1.358       .  S
C1197      C1198   1.428       .  A
C1198      F1199   1.351       .  S
C1203      C1204   1.373       .  A
C1203      C1208   1.371       .  A
C1203      F1210   1.357       .  S
C1204      C1205   1.420       .  A
C1205      C1206   1.363       .  A
C1205      F1212   1.329       .  S
C1206      C1207   1.375       .  A
C1206      F1211   1.360       .  S
C1207      C1208   1.413       .  A
C1208      F1209   1.345       .  S
C1213      C1214   1.386       .  A
C1213      C1218   1.397       .  A
C1213      F1220   1.358       .  S
C1214      C1215   1.395       .  A
C1215      C1216   1.403       .  A
C1215      F1222   1.357       .  S
C1216      C1217   1.428       .  A
C1216      F1221   1.355       .  S
C1217      C1218   1.420       .  A
C1218      F1219   1.341       .  S
C1223      C1224   1.399       .  A
C1223      C1228   1.394       .  A
C1223      F1230   1.356       .  S
C1224      C1225   1.422       .  A
C1225      C1226   1.379       .  A
C1225      F1232   1.336       .  S
C1226      C1227   1.376       .  A
C1226      F1231   1.358       .  S
C1227      C1228   1.409       .  A
C1228      F1229   1.355       .  S
C1233      C1234   1.388       .  A
C1233      C1238   1.378       .  A
C1233      F1240   1.359       .  S
C1234      C1235   1.409       .  A
C1235      C1236   1.380       .  A
C1235      F1242   1.344       .  S
C1236      C1237   1.373       .  A
C1236      F1241   1.359       .  S
C1237      C1238   1.425       .  A
C1238      F1239   1.341       .  S
C1243      C1244   1.399       .  A
C1243      C1248   1.404       .  A
C1243      F1250   1.356       .  S
C1244      C1245   1.384       .  A
C1245      C1246   1.394       .  A
C1245      F1252   1.358       .  S
C1246      C1247   1.420       .  A
C1246      F1251   1.344       .  S
C1247      C1248   1.427       .  A
C1248      F1249   1.354       .  S
C1253      C1254   1.406   1_655  A
C1253      C1258   1.401       .  A
C1253      F1260   1.357       .  S
C1254      C1255   1.392       .  A
C1255      C1256   1.385       .  A
C1255      F1262   1.360       .  S
C1256      C1257   1.422   1_455  A
C1256      F1261   1.341       .  S
C1257      C1258   1.414       .  A
C1258      F1259   1.352       .  S
C1263      C1264   1.406       .  A
C1263      C1268   1.407       .  A
C1263      F1270   1.357       .  S
C1264      C1265   1.393       .  A
C1265      C1266   1.397       .  A
C1265      F1272   1.359       .  S
C1266      C1267   1.414       .  A
C1266      F1271   1.351       .  S
C1267      C1268   1.423       .  A
C1268      F1269   1.356       .  S
C1273      C1274   1.409       .  A
C1273      C1278   1.393       .  A
C1273      F1280   1.343       .  S
C1274      C1275   1.388       .  A
C1275      C1276   1.391       .  A
C1275      F1282   1.357       .  S
C1276      C1277   1.412       .  A
C1276      F1281   1.345       .  S
C1277      C1278   1.394       .  A
C1278      F1279   1.357       .  S
C1283      C1284   1.398   1_455  A
C1283      C1288   1.399   1_455  A
C1283      F1290   1.358       .  S
C1284      C1285   1.395       .  A
C1285      C1286   1.401       .  A
C1285      F1292   1.357       .  S
C1286      C1287   1.426       .  A
C1286      F1291   1.349       .  S
C1287      C1288   1.425       .  A
C1288      F1289   1.353       .  S
C1293      C1294   1.413       .  A
C1293      C1298   1.402       .  A
C1293      F1300   1.359   1_655  S
C1294      C1295   1.391       .  A
C1295      C1296   1.389       .  A
C1295      F1302   1.359       .  S
C1296      C1297   1.427       .  A
C1296      F1301   1.353       .  S
C1297      C1298   1.407       .  A
C1298      F1299   1.355   1_655  S
C1303      C1304   1.426       .  A
C1303      C1308   1.398       .  A
C1303      F1310   1.351       .  S
C1304      C1305   1.410       .  A
C1305      C1306   1.397       .  A
C1305      F1312   1.350       .  S
C1306      C1307   1.399       .  A
C1306      F1311   1.354       .  S
C1307      C1308   1.396       .  A
C1308      F1309   1.358       .  S
C1313      C1314   1.413       .  A
C1313      C1318   1.395       .  A
C1313      F1320   1.359       .  S
C1314      C1315   1.412       .  A
C1315      C1316   1.382       .  A
C1315      F1322   1.348       .  S
C1316      C1317   1.393       .  A
C1316      F1321   1.359       .  S
C1317      C1318   1.413       .  A
C1318      F1319   1.360       .  S
C1323      C1324   1.424       .  A
C1323      C1328   1.387       .  A
C1323      F1330   1.341       .  S
C1324      C1325   1.400       .  A
C1325      C1326   1.397       .  A
C1325      F1332   1.354       .  S
C1326      C1327   1.407       .  A
C1326      F1331   1.356       .  S
C1327      C1328   1.386       .  A
C1328      F1329   1.357       .  S
C1333      C1334   1.406       .  A
C1333      C1338   1.383       .  A
C1333      F1340   1.355       .  S
C1334      C1335   1.422       .  A
C1335      C1336   1.392       .  A
C1335      F1342   1.358       .  S
C1336      C1337   1.401       .  A
C1336      F1341   1.358       .  S
C1337      C1338   1.399       .  A
C1338      F1339   1.359       .  S
C1343      C1344   1.412       .  A
C1343      C1348   1.395       .  A
C1343      F1350   1.351       .  S
C1344      C1345   1.415       .  A
C1345      C1346   1.394       .  A
C1345      F1352   1.350       .  S
C1346      C1347   1.395       .  A
C1346      F1351   1.358       .  S
C1347      C1348   1.399       .  A
C1348      F1349   1.359       .  S
C1353      C1354   1.429       .  A
C1353      C1358   1.402       .  A
C1353      F1360   1.354       .  S
C1354      C1355   1.425       .  A
C1355      C1356   1.405       .  A
C1355      F1362   1.344       .  S
C1356      C1357   1.398       .  A
C1356      F1361   1.357       .  S
C1357      C1358   1.394       .  A
C1358      F1359   1.358       .  S
C1363      C1364   1.409       .  A
C1363      C1368   1.390       .  A
C1363      F1370   1.356       .  S
C1364      C1365   1.385   1_556  A
C1365      C1366   1.390       .  A
C1365      F1372   1.357       .  S
C1366      C1367   1.415   1_554  A
C1366      F1371   1.347       .  S
C1367      C1368   1.395       .  A
C1368      F1369   1.356       .  S
C1373      C1374   1.415       .  A
C1373      C1378   1.375       .  A
C1373      F1380   1.340       .  S
C1374      C1375   1.392       .  A
C1375      C1376   1.369       .  A
C1375      F1382   1.351       .  S
C1376      C1377   1.403       .  A
C1376      F1381   1.336       .  S
C1377      C1378   1.376       .  A
C1378      F1379   1.359       .  S
C1383      C1384   1.406       .  A
C1383      C1388   1.400       .  A
C1383      F1390   1.355   1_565  S
C1384      C1385   1.380       .  A
C1385      C1386   1.376       .  A
C1385      F1392   1.355       .  S
C1386      C1387   1.420       .  A
C1386      F1391   1.350       .  S
C1387      C1388   1.405       .  A
C1388      F1389   1.358       .  S
C1393      C1394   1.390       .  A
C1393      C1398   1.396       .  A
C1393      F1400   1.358       .  S
C1394      C1395   1.405       .  A
C1395      C1396   1.406       .  A
C1395      F1402   1.357       .  S
C1396      C1397   1.423       .  A
C1396      F1401   1.357       .  S
C1397      C1398   1.429       .  A
C1398      F1399   1.352       .  S
C1403      C1404   1.419       .  A
C1403      C1408   1.397       .  A
C1403      F1410   1.356       .  S
C1404      C1405   1.371       .  A
C1405      C1406   1.352       .  A
C1405      F1412   1.354       .  S
C1406      C1407   1.422       .  A
C1406      F1411   1.353       .  S
C1407      C1408   1.398       .  A
C1408      F1409   1.358       .  S
C1413      C1414   1.404       .  A
C1413      C1418   1.390       .  A
C1413      F1420   1.350       .  S
C1414      C1415   1.415       .  A
C1415      C1416   1.395       .  A
C1415      F1422   1.339       .  S
C1416      C1417   1.394       .  A
C1416      F1421   1.358       .  S
C1417      C1418   1.400       .  A
C1418      F1419   1.358       .  S
C1423      C1424   1.397       .  A
C1423      C1428   1.392       .  A
C1423      F1430   1.357       .  S
C1424      C1425   1.393       .  A
C1425      C1426   1.394       .  A
C1425      F1432   1.359       .  S
C1426      C1427   1.419       .  A
C1426      F1431   1.343       .  S
C1427      C1428   1.419       .  A
C1428      F1429   1.356       .  S
C1433      C1434   1.404       .  A
C1433      C1438   1.384       .  A
C1433      F1440   1.357       .  S
C1434      C1435   1.396       .  A
C1435      C1436   1.392       .  A
C1435      F1442   1.357       .  S
C1436      C1437   1.412       .  A
C1436      F1441   1.351       .  S
C1437      C1438   1.401       .  A
C1438      F1439   1.354       .  S
C1443      C1444   1.394       .  A
C1443      C1448   1.398       .  A
C1443      F1450   1.357       .  S
C1444      C1445   1.406       .  A
C1445      C1446   1.401       .  A
C1445      F1452   1.355       .  S
C1446      C1447   1.387       .  A
C1446      F1451   1.337       .  S
C1447      C1448   1.415       .  A
C1448      F1449   1.343       .  S
C1453      C1454   1.410       .  A
C1453      C1458   1.397       .  A
C1453      F1460   1.356       .  S
C1454      C1455   1.411       .  A
C1455      C1456   1.380       .  A
C1455      F1462   1.348       .  S
C1456      C1457   1.392       .  A
C1456      F1461   1.360       .  S
C1457      C1458   1.413       .  A
C1458      F1459   1.359       .  S
C1463      C1464   1.418       .  A
C1463      C1468   1.396       .  A
C1463      F1470   1.351       .  S
C1464      C1465   1.422       .  A
C1465      C1466   1.386       .  A
C1465      F1472   1.341       .  S
C1466      C1467   1.383       .  A
C1466      F1471   1.358       .  S
C1467      C1468   1.385       .  A
C1468      F1469   1.348       .  S
C1473      C1474   1.424       .  A
C1473      C1478   1.395       .  A
C1473      F1480   1.342       .  S
C1474      C1475   1.410       .  A
C1475      C1476   1.391       .  A
C1475      F1482   1.339       .  S
C1476      C1477   1.388       .  A
C1476      F1481   1.357       .  S
C1477      C1478   1.388       .  A
C1478      F1479   1.358       .  S
C1483      C1484   1.414       .  A
C1483      C1488   1.397       .  A
C1483      F1490   1.359       .  S
C1484      C1485   1.418       .  A
C1485      C1486   1.390       .  A
C1485      F1492   1.345       .  S
C1486      C1487   1.390       .  A
C1486      F1491   1.359       .  S
C1487      C1488   1.407       .  A
C1488      F1489   1.359       .  S
C1493      C1494   1.394       .  A
C1493      C1498   1.401       .  A
C1493      F1500   1.343       .  S
C1494      C1495   1.419   1_654  A
C1495      C1496   1.392       .  A
C1495      F1502   1.336       .  S
C1496      C1497   1.385   1_556  A
C1496      F1501   1.357       .  S
C1497      C1498   1.400   1_455  A
C1498      F1499   1.354       .  S
C1503      C1504   1.402       .  A
C1503      C1508   1.404       .  A
C1503      F1510   1.356       .  S
C1504      C1505   1.394       .  A
C1505      C1506   1.357       .  A
C1505      F1512   1.346       .  S
C1506      C1507   1.369       .  A
C1506      F1511   1.351       .  S
C1507      C1508   1.417       .  A
C1508      F1509   1.354       .  S
C1513      C1514   1.396       .  A
C1513      C1518   1.397       .  A
C1513      F1520   1.356       .  S
C1514      C1515   1.390       .  A
C1515      C1516   1.393       .  A
C1515      F1522   1.359       .  S
C1516      C1517   1.422       .  A
C1516      F1521   1.342       .  S
C1517      C1518   1.410       .  A
C1518      F1519   1.351       .  S
C1523      C1524   1.412       .  A
C1523      C1528   1.392       .  A
C1523      F1530   1.340       .  S
C1524      C1525   1.425       .  A
C1525      C1526   1.401       .  A
C1525      F1532   1.348       .  S
C1526      C1527   1.399       .  A
C1526      F1531   1.358       .  S
C1527      C1528   1.395       .  A
C1528      F1529   1.360       .  S
C1533      C1534   1.390       .  A
C1533      C1538   1.391       .  A
C1533      F1540   1.358       .  S
C1534      C1535   1.407       .  A
C1535      C1536   1.399       .  A
C1535      F1542   1.356       .  S
C1536      C1537   1.408       .  A
C1536      F1541   1.355       .  S
C1537      C1538   1.415       .  A
C1538      F1539   1.342       .  S
C1543      C1544   1.401       .  A
C1543      C1548   1.385       .  A
C1543      F1550   1.361       .  S
C1544      C1545   1.392   1_565  A
C1545      C1546   1.392       .  A
C1545      F1552   1.356       .  S
C1546      C1547   1.415   1_545  A
C1546      F1551   1.349       .  S
C1547      C1548   1.401       .  A
C1548      F1549   1.335       .  S
C1553      C1554   1.402       .  A
C1553      C1558   1.405       .  A
C1553      F1560   1.357       .  S
C1554      C1555   1.395       .  A
C1555      C1556   1.402       .  A
C1555      F1562   1.358       .  S
C1556      C1557   1.428       .  A
C1556      F1561   1.354       .  S
C1557      C1558   1.415       .  A
C1558      F1559   1.351       .  S
C1563      C1564   1.402       .  A
C1563      C1568   1.403       .  A
C1563      F1570   1.358       .  S
C1564      C1565   1.392       .  A
C1565      C1566   1.397       .  A
C1565      F1572   1.358   1_655  S
C1566      C1567   1.433       .  A
C1566      F1571   1.356   1_655  S
C1567      C1568   1.412       .  A
C1568      F1569   1.345       .  S
C1573      C1574   1.400       .  A
C1573      C1578   1.402       .  A
C1573      F1580   1.357       .  S
C1574      C1575   1.395       .  A
C1575      C1576   1.399       .  A
C1575      F1582   1.357       .  S
C1576      C1577   1.421       .  A
C1576      F1581   1.348       .  S
C1577      C1578   1.432       .  A
C1578      F1579   1.358       .  S
C1583      C1584   1.385       .  A
C1583      C1588   1.387       .  A
C1583      F1590   1.337       .  S
C1584      C1585   1.413   1_565  A
C1585      C1586   1.402       .  A
C1585      F1592   1.354       .  S
C1586      C1587   1.407   1_545  A
C1586      F1591   1.357       .  S
C1587      C1588   1.400       .  A
C1588      F1589   1.356       .  S
C1593      C1594   1.391       .  A
C1593      C1598   1.391       .  A
C1593      F1600   1.357   1_545  S
C1594      C1595   1.393       .  A
C1595      C1596   1.389       .  A
C1595      F1602   1.334       .  S
C1596      C1597   1.382       .  A
C1596      F1601   1.352       .  S
C1597      C1598   1.408       .  A
C1598      F1599   1.330   1_545  S
C1603      C1604   1.400       .  A
C1603      C1608   1.391       .  A
C1603      F1610   1.351       .  S
C1604      C1605   1.419   1_455  A
C1605      C1606   1.394   1_655  A
C1605      F1612   1.352       .  S
C1606      C1607   1.392       .  A
C1606      F1611   1.358   1_455  S
C1607      C1608   1.403       .  A
C1608      F1609   1.351       .  S
C1613      C1614   1.406       .  A
C1613      C1618   1.405       .  A
C1613      F1620   1.356       .  S
C1614      C1615   1.431       .  A
C1615      C1616   1.385       .  A
C1615      F1622   1.351   1_655  S
C1616      C1617   1.381       .  A
C1616      F1621   1.358   1_655  S
C1617      C1618   1.406       .  A
C1618      F1619   1.356       .  S
C1623      C1624   1.402       .  A
C1623      C1628   1.415       .  A
C1623      F1630   1.356       .  S
C1624      C1625   1.443       .  A
C1625      C1626   1.386       .  A
C1625      F1632   1.350   1_455  S
C1626      C1627   1.375       .  A
C1626      F1631   1.358   1_455  S
C1627      C1628   1.413       .  A
C1628      F1629   1.357   1_565  S
C1633      C1634   1.391       .  A
C1633      C1638   1.392       .  A
C1633      F1640   1.358       .  S
C1634      C1635   1.380       .  A
C1635      C1636   1.382       .  A
C1635      F1642   1.360       .  S
C1636      C1637   1.419       .  A
C1636      F1641   1.332       .  S
C1637      C1638   1.414       .  A
C1638      F1639   1.345       .  S
C1643      C1644   1.396       .  A
C1643      C1648   1.388       .  A
C1643      F1650   1.353       .  S
C1644      C1645   1.395       .  A
C1645      C1646   1.389       .  A
C1645      F1652   1.358       .  S
C1646      C1647   1.415       .  A
C1646      F1651   1.342       .  S
C1647      C1648   1.403       .  A
C1648      F1649   1.350       .  S
C1653      C1654   1.409       .  A
C1653      C1658   1.393       .  A
C1653      F1660   1.341       .  S
C1654      C1655   1.386       .  A
C1655      C1656   1.395   1_655  A
C1655      F1662   1.356   1_655  S
C1656      C1657   1.426   1_455  A
C1656      F1661   1.349       .  S
C1657      C1658   1.392       .  A
C1658      F1659   1.354       .  S
C1663      C1664   1.401       .  A
C1663      C1668   1.392       .  A
C1663      F1670   1.353       .  S
C1664      C1665   1.390       .  A
C1665      C1666   1.392       .  A
C1665      F1672   1.358       .  S
C1666      C1667   1.416       .  A
C1666      F1671   1.345       .  S
C1667      C1668   1.395       .  A
C1668      F1669   1.345       .  S
C1673      C1674   1.425   1_454  A
C1673      C1678   1.400       .  A
C1673      F1680   1.352       .  S
C1674      C1675   1.424       .  A
C1675      C1676   1.395   1_556  A
C1675      F1682   1.346       .  S
C1676      C1677   1.389       .  A
C1676      F1681   1.358       .  S
C1677      C1678   1.397   1_655  A
C1678      F1679   1.357       .  S
C1683      C1684   1.413       .  A
C1683      C1688   1.400       .  A
C1683      F1690   1.342       .  S
C1684      C1685   1.408       .  A
C1685      C1686   1.397       .  A
C1685      F1692   1.345       .  S
C1686      C1687   1.405       .  A
C1686      F1691   1.358       .  S
C1687      C1688   1.393       .  A
C1688      F1689   1.356       .  S
C1693      C1694   1.399   1_554  A
C1693      C1698   1.397       .  A
C1693      F1700   1.356       .  S
C1694      C1695   1.385       .  A
C1695      C1696   1.389       .  A
C1695      F1702   1.358       .  S
C1696      C1697   1.422       .  A
C1696      F1701   1.339       .  S
C1697      C1698   1.419   1_556  A
C1698      F1699   1.352       .  S
C1703      C1704   1.386       .  A
C1703      C1708   1.395       .  A
C1703      F1710   1.358       .  S
C1704      C1705   1.400   1_455  A
C1705      C1706   1.401       .  A
C1705      F1712   1.357       .  S
C1706      C1707   1.423       .  A
C1706      F1711   1.358   1_565  S
C1707      C1708   1.423   1_655  A
C1708      F1709   1.338       .  S
C1713      C1714   1.394       .  A
C1713      C1718   1.393       .  A
C1713      F1720   1.359       .  S
C1714      C1715   1.396   1_655  A
C1715      C1716   1.394       .  A
C1715      F1722   1.357       .  S
C1716      C1717   1.414       .  A
C1716      F1721   1.352       .  S
C1717      C1718   1.420   1_455  A
C1718      F1719   1.348       .  S
C1723      C1724   1.416   1_544  A
C1723      C1728   1.397       .  A
C1723      F1730   1.341       .  S
C1724      C1725   1.392       .  A
C1725      C1726   1.406       .  A
C1725      F1732   1.346       .  S
C1726      C1727   1.403   1_556  A
C1726      F1731   1.355       .  S
C1727      C1728   1.396   1_565  A
C1728      F1729   1.357       .  S
C1733      C1734   1.388       .  A
C1733      C1738   1.389       .  A
C1733      F1740   1.360       .  S
C1734      C1735   1.400   1_645  A
C1735      C1736   1.400       .  A
C1735      F1742   1.357       .  S
C1736      C1737   1.419   1_455  A
C1736      F1741   1.355       .  S
C1737      C1738   1.419   1_565  A
C1738      F1739   1.340       .  S
C1743      C1744   1.422   1_455  A
C1743      C1748   1.390       .  A
C1743      F1750   1.354       .  S
C1744      C1745   1.400       .  A
C1745      C1746   1.396   1_655  A
C1745      F1752   1.357       .  S
C1746      C1747   1.411       .  A
C1746      F1751   1.358   1_456  S
C1747      C1748   1.398       .  A
C1748      F1749   1.359       .  S
